
OS:Version,
  {6aeb6b4a-b85b-4177-98d5-d512c266e331}, !- Handle
  3.6.1;                                  !- Version Identifier

OS:Building,
  {79fe2d1c-18cd-4a45-b422-7fbaa585fee4}, !- Handle
  Building 1,                             !- Name
  ,                                       !- Building Sector Type
  0,                                      !- North Axis {deg}
  ,                                       !- Nominal Floor to Floor Height {m}
  ,                                       !- Space Type Name
  {69a6c482-ed9b-4036-82c7-3cc5248dee80}, !- Default Construction Set Name
  ,                                       !- Default Schedule Set Name
  ,                                       !- Standards Number of Stories
  ,                                       !- Standards Number of Above Ground Stories
  ,                                       !- Standards Template
  MediumOffice;                           !- Standards Building Type

OS:Facility,
  {0a882fc9-a0bf-4597-9b99-005aabd2805e}; !- Handle

OS:Site,
  {d380e260-00de-42b2-9e85-a7f7976794dc}, !- Handle
  Site 1,                                 !- Name
  ,                                       !- Latitude {deg}
  ,                                       !- Longitude {deg}
  ,                                       !- Time Zone {hr}
  ,                                       !- Elevation {m}
  City;                                   !- Terrain

OS:SimulationControl,
  {993e435f-2bc6-4bb3-bd5f-592875d573c6}, !- Handle
  Yes,                                    !- Do Zone Sizing Calculation
  Yes,                                    !- Do System Sizing Calculation
  Yes,                                    !- Do Plant Sizing Calculation
  No,                                     !- Run Simulation for Sizing Periods
  Yes,                                    !- Run Simulation for Weather File Run Periods
  ,                                       !- Loads Convergence Tolerance Value {W}
  ,                                       !- Temperature Convergence Tolerance Value {deltaC}
  FullInteriorAndExterior;                !- Solar Distribution

OS:Sizing:Parameters,
  {18356f26-9a74-43f9-bc0c-a30d256690fc}, !- Handle
  1,                                      !- Heating Sizing Factor
  1;                                      !- Cooling Sizing Factor

OS:Timestep,
  {e69a7fd6-85d9-4364-9929-97bc6d62da46}, !- Handle
  6;                                      !- Number of Timesteps per Hour

OS:ShadowCalculation,
  {5606e949-2ad5-422b-b50f-324e1146d936}, !- Handle
  PolygonClipping,                        !- Shading Calculation Method
  Periodic,                               !- Shading Calculation Update Frequency Method
  30,                                     !- Shading Calculation Update Frequency
  15000,                                  !- Maximum Figures in Shadow Overlap Calculations
  ,                                       !- Polygon Clipping Algorithm
  512,                                    !- Pixel Counting Resolution
  ,                                       !- Sky Diffuse Modeling Algorithm
  No,                                     !- Output External Shading Calculation Results
  No,                                     !- Disable Self-Shading Within Shading Zone Groups
  No;                                     !- Disable Self-Shading From Shading Zone Groups to Other Zones

OS:HeatBalanceAlgorithm,
  {08347bc2-60bc-4c1c-b88e-0c8a88f63ab9}, !- Handle
  ConductionTransferFunction,             !- Algorithm
  200;                                    !- Surface Temperature Upper Limit {C}

OS:RunPeriod,
  {9e184269-59b3-4980-8ffd-db1080be5259}, !- Handle
  Run Period 1,                           !- Name
  1,                                      !- Begin Month
  1,                                      !- Begin Day of Month
  3,                                      !- End Month
  31,                                     !- End Day of Month
  ,                                       !- Use Weather File Holidays and Special Days
  ,                                       !- Use Weather File Daylight Saving Period
  ,                                       !- Apply Weekend Holiday Rule
  ,                                       !- Use Weather File Rain Indicators
  ,                                       !- Use Weather File Snow Indicators
  ;                                       !- Number of Times Runperiod to be Repeated

OS:LifeCycleCost:Parameters,
  {3e4d8f99-eb57-45db-8d9e-344fa92db4e5}, !- Handle
  ,                                       !- Analysis Type
  ,                                       !- Discounting Convention
  ,                                       !- Inflation Approach
  ,                                       !- Real Discount Rate
  ,                                       !- Nominal Discount Rate
  ,                                       !- Inflation
  ,                                       !- Base Date Month
  ,                                       !- Base Date Year
  ,                                       !- Service Date Month
  ,                                       !- Service Date Year
  ;                                       !- Length of Study Period in Years

OS:WeatherFile,
  {f174dcd2-73ba-46f1-b10d-0ebe8616de37}, !- Handle
  Honolulu Intl Arpt,                     !- City
  HI,                                     !- State Province Region
  USA,                                    !- Country
  TMY3,                                   !- Data Source
  911820,                                 !- WMO Number
  21.32,                                  !- Latitude {deg}
  -157.93,                                !- Longitude {deg}
  -10,                                    !- Time Zone {hr}
  2,                                      !- Elevation {m}
  C:/Users/admin/masterwin/thermal/epw/USA_HI_Honolulu.Intl.AP.911820_TMY3/USA_HI_Honolulu.Intl.AP.911820_TMY3.epw, !- Url
  FAFD839F,                               !- Checksum
  ,                                       !- Start Date Actual Year
  Sunday;                                 !- Start Day of Week

OS:SizingPeriod:DesignDay,
  {4a565fe2-fcb1-41b6-99f5-7dacf350435b}, !- Handle
  Honolulu Intl Arpt Ann Htg 99.6% Condns DB, !- Name
  16.2,                                   !- Maximum Dry-Bulb Temperature {C}
  0,                                      !- Daily Dry-Bulb Temperature Range {deltaC}
  101301,                                 !- Barometric Pressure {Pa}
  1.9,                                    !- Wind Speed {m/s}
  320,                                    !- Wind Direction {deg}
  0,                                      !- Sky Clearness
  ,                                       !- Rain Indicator
  ,                                       !- Snow Indicator
  21,                                     !- Day of Month
  2,                                      !- Month
  WinterDesignDay,                        !- Day Type
  ,                                       !- Daylight Saving Time Indicator
  Wetbulb,                                !- Humidity Condition Type
  ,                                       !- Humidity Condition Day Schedule Name
  16.2,                                   !- Wetbulb or DewPoint at Maximum Dry-Bulb {C}
  ,                                       !- Humidity Ratio at Maximum Dry-Bulb {kgWater/kgDryAir}
  ,                                       !- Enthalpy at Maximum Dry-Bulb {J/kg}
  ,                                       !- Dry-Bulb Temperature Range Modifier Type
  ,                                       !- Dry-Bulb Temperature Range Modifier Day Schedule Name
  ASHRAEClearSky;                         !- Solar Model Indicator

OS:SizingPeriod:DesignDay,
  {d1166260-8349-4014-95df-ef2ca7bfa924}, !- Handle
  Honolulu Intl Arpt Ann Htg 99% Condns DB, !- Name
  17.4,                                   !- Maximum Dry-Bulb Temperature {C}
  0,                                      !- Daily Dry-Bulb Temperature Range {deltaC}
  101301,                                 !- Barometric Pressure {Pa}
  1.9,                                    !- Wind Speed {m/s}
  320,                                    !- Wind Direction {deg}
  0,                                      !- Sky Clearness
  ,                                       !- Rain Indicator
  ,                                       !- Snow Indicator
  21,                                     !- Day of Month
  2,                                      !- Month
  WinterDesignDay,                        !- Day Type
  ,                                       !- Daylight Saving Time Indicator
  Wetbulb,                                !- Humidity Condition Type
  ,                                       !- Humidity Condition Day Schedule Name
  17.4,                                   !- Wetbulb or DewPoint at Maximum Dry-Bulb {C}
  ,                                       !- Humidity Ratio at Maximum Dry-Bulb {kgWater/kgDryAir}
  ,                                       !- Enthalpy at Maximum Dry-Bulb {J/kg}
  ,                                       !- Dry-Bulb Temperature Range Modifier Type
  ,                                       !- Dry-Bulb Temperature Range Modifier Day Schedule Name
  ASHRAEClearSky;                         !- Solar Model Indicator

OS:SizingPeriod:DesignDay,
  {c3021dde-2772-4cbe-bd6c-98f676298add}, !- Handle
  Honolulu Intl Arpt Ann Hum_n 99.6% Condns DP=>MCDB, !- Name
  20.8,                                   !- Maximum Dry-Bulb Temperature {C}
  0,                                      !- Daily Dry-Bulb Temperature Range {deltaC}
  101301,                                 !- Barometric Pressure {Pa}
  1.9,                                    !- Wind Speed {m/s}
  320,                                    !- Wind Direction {deg}
  0,                                      !- Sky Clearness
  ,                                       !- Rain Indicator
  ,                                       !- Snow Indicator
  21,                                     !- Day of Month
  2,                                      !- Month
  WinterDesignDay,                        !- Day Type
  ,                                       !- Daylight Saving Time Indicator
  Dewpoint,                               !- Humidity Condition Type
  ,                                       !- Humidity Condition Day Schedule Name
  10.8,                                   !- Wetbulb or DewPoint at Maximum Dry-Bulb {C}
  ,                                       !- Humidity Ratio at Maximum Dry-Bulb {kgWater/kgDryAir}
  ,                                       !- Enthalpy at Maximum Dry-Bulb {J/kg}
  ,                                       !- Dry-Bulb Temperature Range Modifier Type
  ,                                       !- Dry-Bulb Temperature Range Modifier Day Schedule Name
  ASHRAEClearSky;                         !- Solar Model Indicator

OS:SizingPeriod:DesignDay,
  {67770073-8c98-44cd-8579-1c58b2f68ce9}, !- Handle
  Honolulu Intl Arpt Ann Hum_n 99% Condns DP=>MCDB, !- Name
  21,                                     !- Maximum Dry-Bulb Temperature {C}
  0,                                      !- Daily Dry-Bulb Temperature Range {deltaC}
  101301,                                 !- Barometric Pressure {Pa}
  1.9,                                    !- Wind Speed {m/s}
  320,                                    !- Wind Direction {deg}
  0,                                      !- Sky Clearness
  ,                                       !- Rain Indicator
  ,                                       !- Snow Indicator
  21,                                     !- Day of Month
  2,                                      !- Month
  WinterDesignDay,                        !- Day Type
  ,                                       !- Daylight Saving Time Indicator
  Dewpoint,                               !- Humidity Condition Type
  ,                                       !- Humidity Condition Day Schedule Name
  11.9,                                   !- Wetbulb or DewPoint at Maximum Dry-Bulb {C}
  ,                                       !- Humidity Ratio at Maximum Dry-Bulb {kgWater/kgDryAir}
  ,                                       !- Enthalpy at Maximum Dry-Bulb {J/kg}
  ,                                       !- Dry-Bulb Temperature Range Modifier Type
  ,                                       !- Dry-Bulb Temperature Range Modifier Day Schedule Name
  ASHRAEClearSky;                         !- Solar Model Indicator

OS:SizingPeriod:DesignDay,
  {37dc3fb2-4c52-423a-b56c-73cb0f1f7f66}, !- Handle
  Honolulu Intl Arpt Ann Htg Wind 99.6% Condns WS=>MCDB, !- Name
  24.3,                                   !- Maximum Dry-Bulb Temperature {C}
  0,                                      !- Daily Dry-Bulb Temperature Range {deltaC}
  101301,                                 !- Barometric Pressure {Pa}
  10.9,                                   !- Wind Speed {m/s}
  320,                                    !- Wind Direction {deg}
  0,                                      !- Sky Clearness
  ,                                       !- Rain Indicator
  ,                                       !- Snow Indicator
  21,                                     !- Day of Month
  2,                                      !- Month
  WinterDesignDay,                        !- Day Type
  ,                                       !- Daylight Saving Time Indicator
  Wetbulb,                                !- Humidity Condition Type
  ,                                       !- Humidity Condition Day Schedule Name
  24.3,                                   !- Wetbulb or DewPoint at Maximum Dry-Bulb {C}
  ,                                       !- Humidity Ratio at Maximum Dry-Bulb {kgWater/kgDryAir}
  ,                                       !- Enthalpy at Maximum Dry-Bulb {J/kg}
  ,                                       !- Dry-Bulb Temperature Range Modifier Type
  ,                                       !- Dry-Bulb Temperature Range Modifier Day Schedule Name
  ASHRAEClearSky;                         !- Solar Model Indicator

OS:SizingPeriod:DesignDay,
  {0b033ee3-36c4-4dcb-b7c2-cb04e4d00849}, !- Handle
  Honolulu Intl Arpt Ann Htg Wind 99% Condns WS=>MCDB, !- Name
  24.1,                                   !- Maximum Dry-Bulb Temperature {C}
  0,                                      !- Daily Dry-Bulb Temperature Range {deltaC}
  101301,                                 !- Barometric Pressure {Pa}
  9.9,                                    !- Wind Speed {m/s}
  320,                                    !- Wind Direction {deg}
  0,                                      !- Sky Clearness
  ,                                       !- Rain Indicator
  ,                                       !- Snow Indicator
  21,                                     !- Day of Month
  2,                                      !- Month
  WinterDesignDay,                        !- Day Type
  ,                                       !- Daylight Saving Time Indicator
  Wetbulb,                                !- Humidity Condition Type
  ,                                       !- Humidity Condition Day Schedule Name
  24.1,                                   !- Wetbulb or DewPoint at Maximum Dry-Bulb {C}
  ,                                       !- Humidity Ratio at Maximum Dry-Bulb {kgWater/kgDryAir}
  ,                                       !- Enthalpy at Maximum Dry-Bulb {J/kg}
  ,                                       !- Dry-Bulb Temperature Range Modifier Type
  ,                                       !- Dry-Bulb Temperature Range Modifier Day Schedule Name
  ASHRAEClearSky;                         !- Solar Model Indicator

OS:SizingPeriod:DesignDay,
  {8ba48a7f-5688-410d-b788-927ab6c4863a}, !- Handle
  Honolulu Intl Arpt Ann Clg .4% Condns DB=>MWB, !- Name
  32.2,                                   !- Maximum Dry-Bulb Temperature {C}
  7.1,                                    !- Daily Dry-Bulb Temperature Range {deltaC}
  101301,                                 !- Barometric Pressure {Pa}
  6.7,                                    !- Wind Speed {m/s}
  60,                                     !- Wind Direction {deg}
  ,                                       !- Sky Clearness
  ,                                       !- Rain Indicator
  ,                                       !- Snow Indicator
  21,                                     !- Day of Month
  8,                                      !- Month
  SummerDesignDay,                        !- Day Type
  ,                                       !- Daylight Saving Time Indicator
  Wetbulb,                                !- Humidity Condition Type
  ,                                       !- Humidity Condition Day Schedule Name
  23.3,                                   !- Wetbulb or DewPoint at Maximum Dry-Bulb {C}
  ,                                       !- Humidity Ratio at Maximum Dry-Bulb {kgWater/kgDryAir}
  ,                                       !- Enthalpy at Maximum Dry-Bulb {J/kg}
  ,                                       !- Dry-Bulb Temperature Range Modifier Type
  ,                                       !- Dry-Bulb Temperature Range Modifier Day Schedule Name
  ASHRAETau,                              !- Solar Model Indicator
  ,                                       !- Beam Solar Day Schedule Name
  ,                                       !- Diffuse Solar Day Schedule Name
  0.382,                                  !- ASHRAE Clear Sky Optical Depth for Beam Irradiance {dimensionless}
  2.521;                                  !- ASHRAE Clear Sky Optical Depth for Diffuse Irradiance {dimensionless}

OS:SizingPeriod:DesignDay,
  {4d1fa84c-5c7b-433a-ada1-91b603fef562}, !- Handle
  Honolulu Intl Arpt Ann Clg 1% Condns DB=>MWB, !- Name
  31.7,                                   !- Maximum Dry-Bulb Temperature {C}
  7.1,                                    !- Daily Dry-Bulb Temperature Range {deltaC}
  101301,                                 !- Barometric Pressure {Pa}
  6.7,                                    !- Wind Speed {m/s}
  60,                                     !- Wind Direction {deg}
  ,                                       !- Sky Clearness
  ,                                       !- Rain Indicator
  ,                                       !- Snow Indicator
  21,                                     !- Day of Month
  8,                                      !- Month
  SummerDesignDay,                        !- Day Type
  ,                                       !- Daylight Saving Time Indicator
  Wetbulb,                                !- Humidity Condition Type
  ,                                       !- Humidity Condition Day Schedule Name
  23.1,                                   !- Wetbulb or DewPoint at Maximum Dry-Bulb {C}
  ,                                       !- Humidity Ratio at Maximum Dry-Bulb {kgWater/kgDryAir}
  ,                                       !- Enthalpy at Maximum Dry-Bulb {J/kg}
  ,                                       !- Dry-Bulb Temperature Range Modifier Type
  ,                                       !- Dry-Bulb Temperature Range Modifier Day Schedule Name
  ASHRAETau,                              !- Solar Model Indicator
  ,                                       !- Beam Solar Day Schedule Name
  ,                                       !- Diffuse Solar Day Schedule Name
  0.382,                                  !- ASHRAE Clear Sky Optical Depth for Beam Irradiance {dimensionless}
  2.521;                                  !- ASHRAE Clear Sky Optical Depth for Diffuse Irradiance {dimensionless}

OS:SizingPeriod:DesignDay,
  {e0c7bc04-914d-435e-9d13-5ea76609d20b}, !- Handle
  Honolulu Intl Arpt Ann Clg 2% Condns DB=>MWB, !- Name
  31.2,                                   !- Maximum Dry-Bulb Temperature {C}
  7.1,                                    !- Daily Dry-Bulb Temperature Range {deltaC}
  101301,                                 !- Barometric Pressure {Pa}
  6.7,                                    !- Wind Speed {m/s}
  60,                                     !- Wind Direction {deg}
  ,                                       !- Sky Clearness
  ,                                       !- Rain Indicator
  ,                                       !- Snow Indicator
  21,                                     !- Day of Month
  8,                                      !- Month
  SummerDesignDay,                        !- Day Type
  ,                                       !- Daylight Saving Time Indicator
  Wetbulb,                                !- Humidity Condition Type
  ,                                       !- Humidity Condition Day Schedule Name
  23,                                     !- Wetbulb or DewPoint at Maximum Dry-Bulb {C}
  ,                                       !- Humidity Ratio at Maximum Dry-Bulb {kgWater/kgDryAir}
  ,                                       !- Enthalpy at Maximum Dry-Bulb {J/kg}
  ,                                       !- Dry-Bulb Temperature Range Modifier Type
  ,                                       !- Dry-Bulb Temperature Range Modifier Day Schedule Name
  ASHRAETau,                              !- Solar Model Indicator
  ,                                       !- Beam Solar Day Schedule Name
  ,                                       !- Diffuse Solar Day Schedule Name
  0.382,                                  !- ASHRAE Clear Sky Optical Depth for Beam Irradiance {dimensionless}
  2.521;                                  !- ASHRAE Clear Sky Optical Depth for Diffuse Irradiance {dimensionless}

OS:SizingPeriod:DesignDay,
  {74862973-3143-46a7-8b31-10b7c5e59c8f}, !- Handle
  Honolulu Intl Arpt Ann Clg .4% Condns WB=>MDB, !- Name
  29.3,                                   !- Maximum Dry-Bulb Temperature {C}
  7.1,                                    !- Daily Dry-Bulb Temperature Range {deltaC}
  101301,                                 !- Barometric Pressure {Pa}
  6.7,                                    !- Wind Speed {m/s}
  60,                                     !- Wind Direction {deg}
  ,                                       !- Sky Clearness
  ,                                       !- Rain Indicator
  ,                                       !- Snow Indicator
  21,                                     !- Day of Month
  8,                                      !- Month
  SummerDesignDay,                        !- Day Type
  ,                                       !- Daylight Saving Time Indicator
  Wetbulb,                                !- Humidity Condition Type
  ,                                       !- Humidity Condition Day Schedule Name
  25.1,                                   !- Wetbulb or DewPoint at Maximum Dry-Bulb {C}
  ,                                       !- Humidity Ratio at Maximum Dry-Bulb {kgWater/kgDryAir}
  ,                                       !- Enthalpy at Maximum Dry-Bulb {J/kg}
  ,                                       !- Dry-Bulb Temperature Range Modifier Type
  ,                                       !- Dry-Bulb Temperature Range Modifier Day Schedule Name
  ASHRAETau,                              !- Solar Model Indicator
  ,                                       !- Beam Solar Day Schedule Name
  ,                                       !- Diffuse Solar Day Schedule Name
  0.382,                                  !- ASHRAE Clear Sky Optical Depth for Beam Irradiance {dimensionless}
  2.521;                                  !- ASHRAE Clear Sky Optical Depth for Diffuse Irradiance {dimensionless}

OS:SizingPeriod:DesignDay,
  {feadfba0-ff48-45ea-934a-3108749f3525}, !- Handle
  Honolulu Intl Arpt Ann Clg 1% Condns WB=>MDB, !- Name
  29,                                     !- Maximum Dry-Bulb Temperature {C}
  7.1,                                    !- Daily Dry-Bulb Temperature Range {deltaC}
  101301,                                 !- Barometric Pressure {Pa}
  6.7,                                    !- Wind Speed {m/s}
  60,                                     !- Wind Direction {deg}
  ,                                       !- Sky Clearness
  ,                                       !- Rain Indicator
  ,                                       !- Snow Indicator
  21,                                     !- Day of Month
  8,                                      !- Month
  SummerDesignDay,                        !- Day Type
  ,                                       !- Daylight Saving Time Indicator
  Wetbulb,                                !- Humidity Condition Type
  ,                                       !- Humidity Condition Day Schedule Name
  24.6,                                   !- Wetbulb or DewPoint at Maximum Dry-Bulb {C}
  ,                                       !- Humidity Ratio at Maximum Dry-Bulb {kgWater/kgDryAir}
  ,                                       !- Enthalpy at Maximum Dry-Bulb {J/kg}
  ,                                       !- Dry-Bulb Temperature Range Modifier Type
  ,                                       !- Dry-Bulb Temperature Range Modifier Day Schedule Name
  ASHRAETau,                              !- Solar Model Indicator
  ,                                       !- Beam Solar Day Schedule Name
  ,                                       !- Diffuse Solar Day Schedule Name
  0.382,                                  !- ASHRAE Clear Sky Optical Depth for Beam Irradiance {dimensionless}
  2.521;                                  !- ASHRAE Clear Sky Optical Depth for Diffuse Irradiance {dimensionless}

OS:SizingPeriod:DesignDay,
  {43ef4396-9679-4f39-99d4-a2a9c28e6dc1}, !- Handle
  Honolulu Intl Arpt Ann Clg 2% Condns WB=>MDB, !- Name
  28.7,                                   !- Maximum Dry-Bulb Temperature {C}
  7.1,                                    !- Daily Dry-Bulb Temperature Range {deltaC}
  101301,                                 !- Barometric Pressure {Pa}
  6.7,                                    !- Wind Speed {m/s}
  60,                                     !- Wind Direction {deg}
  ,                                       !- Sky Clearness
  ,                                       !- Rain Indicator
  ,                                       !- Snow Indicator
  21,                                     !- Day of Month
  8,                                      !- Month
  SummerDesignDay,                        !- Day Type
  ,                                       !- Daylight Saving Time Indicator
  Wetbulb,                                !- Humidity Condition Type
  ,                                       !- Humidity Condition Day Schedule Name
  24.2,                                   !- Wetbulb or DewPoint at Maximum Dry-Bulb {C}
  ,                                       !- Humidity Ratio at Maximum Dry-Bulb {kgWater/kgDryAir}
  ,                                       !- Enthalpy at Maximum Dry-Bulb {J/kg}
  ,                                       !- Dry-Bulb Temperature Range Modifier Type
  ,                                       !- Dry-Bulb Temperature Range Modifier Day Schedule Name
  ASHRAETau,                              !- Solar Model Indicator
  ,                                       !- Beam Solar Day Schedule Name
  ,                                       !- Diffuse Solar Day Schedule Name
  0.382,                                  !- ASHRAE Clear Sky Optical Depth for Beam Irradiance {dimensionless}
  2.521;                                  !- ASHRAE Clear Sky Optical Depth for Diffuse Irradiance {dimensionless}

OS:SizingPeriod:DesignDay,
  {1a8bc54b-1dfb-460b-b602-241b865703fa}, !- Handle
  Honolulu Intl Arpt Ann Clg .4% Condns DP=>MDB, !- Name
  27.4,                                   !- Maximum Dry-Bulb Temperature {C}
  7.1,                                    !- Daily Dry-Bulb Temperature Range {deltaC}
  101301,                                 !- Barometric Pressure {Pa}
  6.7,                                    !- Wind Speed {m/s}
  60,                                     !- Wind Direction {deg}
  ,                                       !- Sky Clearness
  ,                                       !- Rain Indicator
  ,                                       !- Snow Indicator
  21,                                     !- Day of Month
  8,                                      !- Month
  SummerDesignDay,                        !- Day Type
  ,                                       !- Daylight Saving Time Indicator
  Dewpoint,                               !- Humidity Condition Type
  ,                                       !- Humidity Condition Day Schedule Name
  23.9,                                   !- Wetbulb or DewPoint at Maximum Dry-Bulb {C}
  ,                                       !- Humidity Ratio at Maximum Dry-Bulb {kgWater/kgDryAir}
  ,                                       !- Enthalpy at Maximum Dry-Bulb {J/kg}
  ,                                       !- Dry-Bulb Temperature Range Modifier Type
  ,                                       !- Dry-Bulb Temperature Range Modifier Day Schedule Name
  ASHRAETau,                              !- Solar Model Indicator
  ,                                       !- Beam Solar Day Schedule Name
  ,                                       !- Diffuse Solar Day Schedule Name
  0.382,                                  !- ASHRAE Clear Sky Optical Depth for Beam Irradiance {dimensionless}
  2.521;                                  !- ASHRAE Clear Sky Optical Depth for Diffuse Irradiance {dimensionless}

OS:SizingPeriod:DesignDay,
  {7ca12f6a-5ea8-43c0-88bb-d6e5c4fb7a40}, !- Handle
  Honolulu Intl Arpt Ann Clg 1% Condns DP=>MDB, !- Name
  27,                                     !- Maximum Dry-Bulb Temperature {C}
  7.1,                                    !- Daily Dry-Bulb Temperature Range {deltaC}
  101301,                                 !- Barometric Pressure {Pa}
  6.7,                                    !- Wind Speed {m/s}
  60,                                     !- Wind Direction {deg}