!-Generator IDFEditor 1.51
!-Option OriginalOrderTop

!-NOTE: All comments with '!-' are ignored by the IDFEditor and are generated automatically.
!-      Use '!' comments if they need to be retained when using the IDFEditor.

Output:Diagnostics,
    DisplayAllWarnings,      !- Key 1
    DisplayExtraWarnings;    !- Key 2

Output:Variable,
    ,                        !- Key Value
    AFN Zone Infiltration Sensible Heat Gain Energy,  !- Variable Name
    Hourly;                  !- Reporting Frequency

Output:Variable,
    ,                        !- Key Value
    Chiller Heater System Heating Electricity Energy,  !- Variable Name
    Hourly;                  !- Reporting Frequency

Output:Variable,
    ,                        !- Key Value
    Cooling Coil Electricity Energy,  !- Variable Name
    Hourly;                  !- Reporting Frequency

Output:Variable,
    ,                        !- Key Value
    Cooling Coil Water Heating Electricity Energy,  !- Variable Name
    Hourly;                  !- Reporting Frequency

Output:Variable,
    ,                        !- Key Value
    Cooling Tower Fan Electricity Energy,  !- Variable Name
    Hourly;                  !- Reporting Frequency

Output:Variable,
    ,                        !- Key Value
    District Cooling Chilled Water Energy,  !- Variable Name
    Hourly;                  !- Reporting Frequency

Output:Variable,
    ,                        !- Key Value
    District Heating Hot Water Energy,  !- Variable Name
    Hourly;                  !- Reporting Frequency

Output:Variable,
    ,                        !- Key Value
    Evaporative Cooler Electricity Energy,  !- Variable Name
    Hourly;                  !- Reporting Frequency

Output:Variable,
    ,                        !- Key Value
    Fan Electricity Energy,  !- Variable Name
    Hourly;                  !- Reporting Frequency

Output:Variable,
    ,                        !- Key Value
    Heating Coil Electricity Energy,  !- Variable Name
    Hourly;                  !- Reporting Frequency

Output:Variable,
    ,                        !- Key Value
    Heating Coil NaturalGas Energy,  !- Variable Name
    Hourly;                  !- Reporting Frequency

Output:Variable,
    ,                        !- Key Value
    AFN Zone Infiltration Sensible Heat Loss Energy,  !- Variable Name
    Hourly;                  !- Reporting Frequency

Output:Variable,
    ,                        !- Key Value
    Heating Coil Total Heating Energy,  !- Variable Name
    Hourly;                  !- Reporting Frequency

Output:Variable,
    ,                        !- Key Value
    Hot_Water_Loop_Central_Air_Source_Heat_Pump Electricity Consumption,  !- Variable Name
    Hourly;                  !- Reporting Frequency

Output:Variable,
    ,                        !- Key Value
    Humidifier Electricity Energy,  !- Variable Name
    Hourly;                  !- Reporting Frequency

Output:Variable,
    ,                        !- Key Value
    Pump Electricity Energy, !- Variable Name
    Hourly;                  !- Reporting Frequency

Output:Variable,
    ,                        !- Key Value
    Surface Inside Face Conduction Heat Transfer Energy,  !- Variable Name
    Hourly;                  !- Reporting Frequency

Output:Variable,
    ,                        !- Key Value
    Surface Inside Face Temperature,  !- Variable Name
    Hourly;                  !- Reporting Frequency

Output:Variable,
    ,                        !- Key Value
    Surface Outside Face Temperature,  !- Variable Name
    Hourly;                  !- Reporting Frequency

Output:Variable,
    ,                        !- Key Value
    Surface Window Heat Gain Energy,  !- Variable Name
    Hourly;                  !- Reporting Frequency

Output:Variable,
    ,                        !- Key Value
    Surface Window Heat Loss Energy,  !- Variable Name
    Hourly;                  !- Reporting Frequency

Output:Variable,
    ,                        !- Key Value
    VRF Heat Pump Cooling Electricity Energy,  !- Variable Name
    Hourly;                  !- Reporting Frequency

Output:Variable,
    ,                        !- Key Value
    AFN Zone Ventilation Sensible Heat Gain Energy,  !- Variable Name
    Hourly;                  !- Reporting Frequency

Output:Variable,
    ,                        !- Key Value
    VRF Heat Pump Crankcase Heater Electricity Energy,  !- Variable Name
    Hourly;                  !- Reporting Frequency

Output:Variable,
    ,                        !- Key Value
    VRF Heat Pump Defrost Electricity Energy,  !- Variable Name
    Hourly;                  !- Reporting Frequency

Output:Variable,
    ,                        !- Key Value
    VRF Heat Pump Heating Electricity Energy,  !- Variable Name
    Hourly;                  !- Reporting Frequency

Output:Variable,
    ,                        !- Key Value
    Water Heater Electricity Energy,  !- Variable Name
    Hourly;                  !- Reporting Frequency

Output:Variable,
    ,                        !- Key Value
    Water Heater NaturalGas Energy,  !- Variable Name
    Hourly;                  !- Reporting Frequency

Output:Variable,
    ,                        !- Key Value
    Water Use Equipment Heating Energy,  !- Variable Name
    Hourly;                  !- Reporting Frequency

Output:Variable,
    ,                        !- Key Value
    Zone Air Relative Humidity,  !- Variable Name
    Hourly;                  !- Reporting Frequency

Output:Variable,
    ,                        !- Key Value
    Zone Electric Equipment Electricity Energy,  !- Variable Name
    Hourly;                  !- Reporting Frequency

Output:Variable,
    ,                        !- Key Value
    Zone Gas Equipment NaturalGas Energy,  !- Variable Name
    Hourly;                  !- Reporting Frequency

Output:Variable,
    ,                        !- Key Value
    Zone Ideal Loads Supply Air Total Cooling Energy,  !- Variable Name
    Hourly;                  !- Reporting Frequency

Output:Variable,
    ,                        !- Key Value
    AFN Zone Ventilation Sensible Heat Loss Energy,  !- Variable Name
    Hourly;                  !- Reporting Frequency

Output:Variable,
    ,                        !- Key Value
    Zone Ideal Loads Supply Air Total Heating Energy,  !- Variable Name
    Hourly;                  !- Reporting Frequency

Output:Variable,
    ,                        !- Key Value
    Zone Ideal Loads Zone Total Cooling Energy,  !- Variable Name
    Hourly;                  !- Reporting Frequency

Output:Variable,
    ,                        !- Key Value
    Zone Ideal Loads Zone Total Heating Energy,  !- Variable Name
    Hourly;                  !- Reporting Frequency

Output:Variable,
    ,                        !- Key Value
    Zone Infiltration Total Heat Gain Energy,  !- Variable Name
    Hourly;                  !- Reporting Frequency

Output:Variable,
    ,                        !- Key Value
    Zone Infiltration Total Heat Loss Energy,  !- Variable Name
    Hourly;                  !- Reporting Frequency

Output:Variable,
    ,                        !- Key Value
    Zone Lights Electricity Energy,  !- Variable Name
    Hourly;                  !- Reporting Frequency

Output:Variable,
    ,                        !- Key Value
    Zone Mean Air Temperature,  !- Variable Name
    Hourly;                  !- Reporting Frequency

Output:Variable,
    ,                        !- Key Value
    Zone Mean Radiant Temperature,  !- Variable Name
    Hourly;                  !- Reporting Frequency

Output:Variable,
    ,                        !- Key Value
    Zone Operative Temperature,  !- Variable Name
    Hourly;                  !- Reporting Frequency

Output:Variable,
    ,                        !- Key Value
    Zone Other Equipment Lost Heat Energy,  !- Variable Name
    Hourly;                  !- Reporting Frequency

Output:Variable,
    ,                        !- Key Value
    Baseboard Electricity Energy,  !- Variable Name
    Hourly;                  !- Reporting Frequency

Output:Variable,
    ,                        !- Key Value
    Zone Other Equipment Total Heating Energy,  !- Variable Name
    Hourly;                  !- Reporting Frequency

Output:Variable,
    ,                        !- Key Value
    Zone People Total Heating Energy,  !- Variable Name
    Hourly;                  !- Reporting Frequency

Output:Variable,
    ,                        !- Key Value
    Zone VRF Air Terminal Cooling Electricity Energy,  !- Variable Name
    Hourly;                  !- Reporting Frequency

Output:Variable,
    ,                        !- Key Value
    Zone VRF Air Terminal Heating Electricity Energy,  !- Variable Name
    Hourly;                  !- Reporting Frequency

Output:Variable,
    ,                        !- Key Value
    Zone Ventilation Fan Electricity Energy,  !- Variable Name
    Hourly;                  !- Reporting Frequency

Output:Variable,
    ,                        !- Key Value
    Zone Ventilation Total Heat Gain Energy,  !- Variable Name
    Hourly;                  !- Reporting Frequency

Output:Variable,
    ,                        !- Key Value
    Zone Ventilation Total Heat Loss Energy,  !- Variable Name
    Hourly;                  !- Reporting Frequency

Output:Variable,
    ,                        !- Key Value
    Zone Windows Total Transmitted Solar Radiation Energy,  !- Variable Name
    Hourly;                  !- Reporting Frequency

Output:Variable,
    ,                        !- Key Value
    Boiler Electricity Energy,  !- Variable Name
    Hourly;                  !- Reporting Frequency

Output:Variable,
    ,                        !- Key Value
    Boiler NaturalGas Energy,!- Variable Name
    Hourly;                  !- Reporting Frequency

Output:Variable,
    ,                        !- Key Value
    Chiller Electricity Energy,  !- Variable Name
    Hourly;                  !- Reporting Frequency

Output:Variable,
    ,                        !- Key Value
    Chiller Heater System Cooling Electricity Energy,  !- Variable Name
    Hourly;                  !- Reporting Frequency

Version,
    22.1;                    !- Version Identifier

Timestep,
    6;                       !- Number of Timesteps per Hour

LifeCycleCost:Parameters,
    Life Cycle Cost Parameters,  !- Name
    EndOfYear,               !- Discounting Convention
    ConstantDollar,          !- Inflation Approach
    0.03,                    !- Real Discount Rate
    ,                        !- Nominal Discount Rate
    ,                        !- Inflation
    ,                        !- Base Date Month
    2011,                    !- Base Date Year
    ,                        !- Service Date Month
    2011,                    !- Service Date Year
    25,                      !- Length of Study Period in Years
    ,                        !- Tax rate
    None;                    !- Depreciation Method

LifeCycleCost:UsePriceEscalation,
    U.S. Avg  Commercial-Electricity,  !- LCC Price Escalation Name
    Electricity,             !- Resource
    2011,                    !- Escalation Start Year
    January,                 !- Escalation Start Month
    0.9838,                  !- Year 1 Escalation
    0.9730,                  !- Year 2 Escalation
    0.9632,                  !- Year 3 Escalation
    0.9611,                  !- Year 4 Escalation
    0.9571,                  !- Year 5 Escalation
    0.9553,                  !- Year 6 Escalation
    0.9539,                  !- Year 7 Escalation
    0.9521,                  !- Year 8 Escalation
    0.9546,                  !- Year 9 Escalation
    0.9550,                  !- N11
    0.9553,                  !- N12
    0.9564,                  !- N13
    0.9575,                  !- N14
    0.9596,                  !- N15
    0.9618,                  !- N16
    0.9614,                  !- N17
    0.9618,                  !- N18
    0.9618,                  !- N19
    0.9593,                  !- N20
    0.9589,                  !- N21
    0.9607,                  !- N22
    0.9625,                  !- N23
    0.9650,                  !- N24
    0.9708,                  !- N25
    0.9751,                  !- N26
    0.9762,                  !- N27
    0.9766,                  !- N28
    0.9766,                  !- N29
    0.9769,                  !- N30
    0.9773;                  !- N31

LifeCycleCost:UsePriceEscalation,
    U.S. Avg  Commercial-Distillate Oil,  !- LCC Price Escalation Name
    FuelOilNo1,              !- Resource
    2011,                    !- Escalation Start Year
    January,                 !- Escalation Start Month
    0.9714,                  !- Year 1 Escalation
    0.9730,                  !- Year 2 Escalation
    0.9942,                  !- Year 3 Escalation
    1.0164,                  !- Year 4 Escalation
    1.0541,                  !- Year 5 Escalation
    1.0928,                  !- Year 6 Escalation
    1.1267,                  !- Year 7 Escalation
    1.1580,                  !- Year 8 Escalation
    1.1792,                  !- Year 9 Escalation
    1.1967,                  !- N11
    1.2200,                  !- N12
    1.2333,                  !- N13
    1.2566,                  !- N14
    1.2709,                  !- N15
    1.2826,                  !- N16
    1.2985,                  !- N17
    1.3102,                  !- N18
    1.3250,                  !- N19
    1.3261,                  !- N20
    1.3282,                  !- N21
    1.3324,                  !- N22
    1.3356,                  !- N23
    1.3431,                  !- N24
    1.3510,                  !- N25
    1.3568,                  !- N26
    1.3606,                  !- N27
    1.3637,                  !- N28
    1.3674,                  !- N29
    1.3706,                  !- N30
    1.3743;                  !- N31

LifeCycleCost:UsePriceEscalation,
    U.S. Avg  Commercial-Residual Oil,  !- LCC Price Escalation Name
    FuelOilNo2,              !- Resource
    2011,                    !- Escalation Start Year
    January,                 !- Escalation Start Month
    0.8469,                  !- Year 1 Escalation
    0.8257,                  !- Year 2 Escalation
    0.8681,                  !- Year 3 Escalation
    0.8988,                  !- Year 4 Escalation
    0.9289,                  !- Year 5 Escalation
    0.9604,                  !- Year 6 Escalation
    0.9897,                  !- Year 7 Escalation
    1.0075,                  !- Year 8 Escalation
    1.0314,                  !- Year 9 Escalation
    1.0554,                  !- N11
    1.0861,                  !- N12
    1.1278,                  !- N13
    1.1497,                  !- N14
    1.1620,                  !- N15
    1.1743,                  !- N16
    1.1852,                  !- N17
    1.1948,                  !- N18
    1.2037,                  !- N19
    1.2071,                  !- N20
    1.2119,                  !- N21
    1.2139,                  !- N22
    1.2194,                  !- N23
    1.2276,                  !- N24
    1.2365,                  !- N25
    1.2420,                  !- N26
    1.2461,                  !- N27
    1.2509,                  !- N28
    1.2550,                  !- N29
    1.2591,                  !- N30
    1.2638;                  !- N31

LifeCycleCost:UsePriceEscalation,
    U.S. Avg  Commercial-Natural gas,  !- LCC Price Escalation Name
    NaturalGas,              !- Resource
    2011,                    !- Escalation Start Year
    January,                 !- Escalation Start Month
    0.9823,                  !- Year 1 Escalation
    0.9557,                  !- Year 2 Escalation
    0.9279,                  !- Year 3 Escalation
    0.9257,                  !- Year 4 Escalation
    0.9346,                  !- Year 5 Escalation
    0.9412,                  !- Year 6 Escalation
    0.9512,                  !- Year 7 Escalation
    0.9645,                  !- Year 8 Escalation
    0.9856,                  !- Year 9 Escalation
    1.0067,                  !- N11
    1.0222,                  !- N12
    1.0410,                  !- N13
    1.0610,                  !- N14
    1.0787,                  !- N15
    1.0942,                  !- N16
    1.1098,                  !- N17
    1.1220,                  !- N18
    1.1308,                  !- N19
    1.1386,                  !- N20
    1.1486,                  !- N21
    1.1619,                  !- N22
    1.1763,                  !- N23
    1.1918,                  !- N24
    1.2118,                  !- N25
    1.2284,                  !- N26
    1.2439,                  !- N27
    1.2605,                  !- N28
    1.2772,                  !- N29
    1.2938,                  !- N30
    1.3115;                  !- N31

LifeCycleCost:UsePriceEscalation,
    U.S. Avg  Commercial-Coal,  !- LCC Price Escalation Name
    Coal,                    !- Resource
    2011,                    !- Escalation Start Year
    January,                 !- Escalation Start Month
    0.9970,                  !- Year 1 Escalation
    1.0089,                  !- Year 2 Escalation
    1.0089,                  !- Year 3 Escalation
    0.9941,                  !- Year 4 Escalation
    0.9941,                  !- Year 5 Escalation
    1.0000,                  !- Year 6 Escalation
    1.0030,                  !- Year 7 Escalation
    1.0059,                  !- Year 8 Escalation
    1.0089,                  !- Year 9 Escalation
    1.0119,                  !- N11
    1.0148,                  !- N12
    1.0178,                  !- N13
    1.0208,                  !- N14
    1.0267,                  !- N15
    1.0297,                  !- N16
    1.0356,                  !- N17
    1.0415,                  !- N18
    1.0534,                  !- N19
    1.0564,                  !- N20
    1.0593,                  !- N21
    1.0653,                  !- N22
    1.0712,                  !- N23
    1.0742,                  !- N24
    1.0801,                  !- N25
    1.0831,                  !- N26
    1.0831,                  !- N27
    1.0861,                  !- N28
    1.0890,                  !- N29
    1.0920,                  !- N30
    1.0950;                  !- N31

Building,
    -MediumOffice-ASHRAE 169-2013-2A created: 2022-11-18 11:28:41 -0500,  !- Name
    0,                       !- North Axis {deg}
    City,                    !- Terrain
    ,                        !- Loads Convergence Tolerance Value {W}
    ,                        !- Temperature Convergence Tolerance Value {deltaC}
    FullInteriorAndExterior, !- Solar Distribution
    25,                      !- Maximum Number of Warmup Days
    ;                        !- Minimum Number of Warmup Days

Zone,
    Core_bottom ZN,          !- Name
    0,                       !- Direction of Relative North {deg}
    0,                       !- X Origin {m}
    0,                       !- Y Origin {m}
    0,                       !- Z Origin {m}
    ,                        !- Type
    1,                       !- Multiplier
    ,                        !- Ceiling Height {m}
    ,                        !- Volume {m3}
    ,                        !- Floor Area {m2}
    ,                        !- Zone Inside Convection Algorithm
    ,                        !- Zone Outside Convection Algorithm
    Yes;                     !- Part of Total Floor Area

BuildingSurface:Detailed,
    Core_bottom_ceiling,     !- Name
    Ceiling,                 !- Surface Type
    Plenum Acoustical Tile,  !- Construction Name
    Core_bottom ZN,          !- Zone Name
    ,                        !- Space Name
    Surface,                 !- Outside Boundary Condition
    FirstFloor_Plenum_Floor_5,  !- Outside Boundary Condition Object
    NoSun,                   !- Sun Exposure
    NoWind,                  !- Wind Exposure
    ,                        !- View Factor to Ground
    ,                        !- Number of Vertices
    45.3375,                 !- Vertex 1 X-coordinate {m}
    4.5732,                  !- Vertex 1 Y-coordinate {m}
    2.7432,                  !- Vertex 1 Z-coordinate {m}
    45.3375,                 !- Vertex 2 X-coordinate {m}
    28.7006,                 !- Vertex 2 Y-coordinate {m}
    2.7432,                  !- Vertex 2 Z-coordinate {m}
    4.5732,                  !- Vertex 3 X-coordinate {m}
    28.7006,                 !- Vertex 3 Y-coordinate {m}
    2.7432,                  !- Vertex 3 Z-coordinate {m}
    4.5732,                  !- Vertex 4 X-coordinate {m}
    4.5732,                  !- Vertex 4 Y-coordinate {m}
    2.7432;                  !- Vertex 4 Z-coordinate {m}

BuildingSurface:Detailed,
    Core_bot_ZN_5_Floor,     !- Name
    Floor,                   !- Surface Type
    Foundation F 126 Perim 0 Area 98354,  !- Construction Name
    Core_bottom ZN,          !- Zone Name
    ,                        !- Space Name
    GroundFCfactorMethod,    !- Outside Boundary Condition
    ,                        !- Outside Boundary Condition Object
    NoSun,                   !- Sun Exposure
    NoWind,                  !- Wind Exposure
    ,                        !- View Factor to Ground
    ,                        !- Number of Vertices
    45.3375,                 !- Vertex 1 X-coordinate {m}
    28.7006,                 !- Vertex 1 Y-coordinate {m}
    0,                       !- Vertex 1 Z-coordinate {m}
    45.3375,                 !- Vertex 2 X-coordinate {m}
    4.5732,                  !- Vertex 2 Y-coordinate {m}
    0,                       !- Vertex 2 Z-coordinate {m}
    4.5732,                  !- Vertex 3 X-coordinate {m}
    4.5732,                  !- Vertex 3 Y-coordinate {m}
    0,                       !- Vertex 3 Z-coordinate {m}
    4.5732,                  !- Vertex 4 X-coordinate {m}
    28.7006,                 !- Vertex 4 Y-coordinate {m}
    0;                       !- Vertex 4 Z-coordinate {m}

BuildingSurface:Detailed,
    Core_bot_ZN_5_Wall_East, !- Name
    Wall,                    !- Surface Type
    Typical Interior Wall,   !- Construction Name
    Core_bottom ZN,          !- Zone Name
    ,                        !- Space Name
    Surface,                 !- Outside Boundary Condition
    Perimeter_bot_ZN_2_Wall_West,  !- Outside Boundary Condition Object
    NoSun,                   !- Sun Exposure
    NoWind,                  !- Wind Exposure
    ,                        !- View Factor to Ground
    ,                        !- Number of Vertices
    45.3375,                 !- Vertex 1 X-coordinate {m}
    4.5732,                  !- Vertex 1 Y-coordinate {m}
    2.7432,                  !- Vertex 1 Z-coordinate {m}
    45.3375,                 !- Vertex 2 X-coordinate {m}
    4.5732,                  !- Vertex 2 Y-coordinate {m}
    0,                       !- Vertex 2 Z-coordinate {m}
    45.3375,                 !- Vertex 3 X-coordinate {m}
    28.7006,                 !- Vertex 3 Y-coordinate {m}
    0,                       !- Vertex 3 Z-coordinate {m}
    45.3375,                 !- Vertex 4 X-coordinate {m}
    28.7006,                 !- Vertex 4 Y-coordinate {m}
    2.7432;                  !- Vertex 4 Z-coordinate {m}

BuildingSurface:Detailed,
    Core_bot_ZN_5_Wall_North,!- Name
    Wall,                    !- Surface Type
    Typical Interior Wall,   !- Construction Name
    Core_bottom ZN,          !- Zone Name
    ,                        !- Space Name
    Surface,                 !- Outside Boundary Condition
    Perimeter_bot_ZN_3_Wall_South,  !- Outside Boundary Condition Object
    NoSun,                   !- Sun Exposure
    NoWind,                  !- Wind Exposure
    ,                        !- View Factor to Ground
    ,                        !- Number of Vertices
    45.3375,                 !- Vertex 1 X-coordinate {m}
    28.7006,                 !- Vertex 1 Y-coordinate {m}
    2.7432,                  !- Vertex 1 Z-coordinate {m}
    45.3375,                 !- Vertex 2 X-coordinate {m}
    28.7006,                 !- Vertex 2 Y-coordinate {m}
    0,                       !- Vertex 2 Z-coordinate {m}
    4.5732,                  !- Vertex 3 X-coordinate {m}
    28.7006,                 !- Vertex 3 Y-coordinate {m}
    0,                       !- Vertex 3 Z-coordinate {m}
    4.5732,                  !- Vertex 4 X-coordinate {m}
    28.7006,                 !- Vertex 4 Y-coordinate {m}
    2.7432;                  !- Vertex 4 Z-coordinate {m}

BuildingSurface:Detailed,
    Core_bot_ZN_5_Wall_South,!- Name
    Wall,                    !- Surface Type
    Typical Interior Wall,   !- Construction Name
    Core_bottom ZN,          !- Zone Name
    ,                        !- Space Name
    Surface,                 !- Outside Boundary Condition
    Perimeter_bot_ZN_1_Wall_North,  !- Outside Boundary Condition Object
    NoSun,                   !- Sun Exposure
    NoWind,                  !- Wind Exposure
    ,                        !- View Factor to Ground
    ,                        !- Number of Vertices
    4.5732,                  !- Vertex 1 X-coordinate {m}
    4.5732,                  !- Vertex 1 Y-coordinate {m}
    2.7432,                  !- Vertex 1 Z-coordinate {m}
    4.5732,                  !- Vertex 2 X-coordinate {m}
    4.5732,                  !- Vertex 2 Y-coordinate {m}
    0,                       !- Vertex 2 Z-coordinate {m}
    45.3375,                 !- Vertex 3 X-coordinate {m}
    4.5732,                  !- Vertex 3 Y-coordinate {m}
    0,                       !- Vertex 3 Z-coordinate {m}
    45.3375,                 !- Vertex 4 X-coordinate {m}
    4.5732,                  !- Vertex 4 Y-coordinate {m}
    2.7432;                  !- Vertex 4 Z-coordinate {m}

BuildingSurface:Detailed,
    Core_bot_ZN_5_Wall_West, !- Name
    Wall,                    !- Surface Type
    Typical Interior Wall,   !- Construction Name
    Core_bottom ZN,          !- Zone Name
    ,                        !- Space Name
    Surface,                 !- Outside Boundary Condition
    Perimeter_bot_ZN_4_Wall_East,  !- Outside Boundary Condition Object
    NoSun,                   !- Sun Exposure
    NoWind,                  !- Wind Exposure
    ,                        !- View Factor to Ground
    ,                        !- Number of Vertices
    4.5732,                  !- Vertex 1 X-coordinate {m}
    28.7006,                 !- Vertex 1 Y-coordinate {m}
    2.7432,                  !- Vertex 1 Z-coordinate {m}
    4.5732,                  !- Vertex 2 X-coordinate {m}
    28.7006,                 !- Vertex 2 Y-coordinate {m}
    0,                       !- Vertex 2 Z-coordinate {m}
    4.5732,                  !- Vertex 3 X-coordinate {m}
    4.5732,                  !- Vertex 3 Y-coordinate {m}
    0,                       !- Vertex 3 Z-coordinate {m}
    4.5732,                  !- Vertex 4 X-coordinate {m}
    4.5732,                  !- Vertex 4 Y-coordinate {m}
    2.7432;                  !- Vertex 4 Z-coordinate {m}

InternalMass,
    Core_bottom Mass,        !- Name
    InteriorFurnishings,     !- Construction Name
    Core_bottom ZN,          !- Zone or ZoneList Name
    ,                        !- Space or SpaceList Name
    1967.07314364;           !- Surface Area {m2}

ElectricEquipment,
    2 Elevator Fans,         !- Name
    Core_bottom ZN,          !- Zone or ZoneList or Space or SpaceList Name
    OfficeMedium ELEV_LIGHT_FAN_SCH_ADD_DF,  !- Schedule Name
    Watts/Person,            !- Design Level Calculation Method
    ,                        !- Design Level {W}
    ,                        !- Watts per Zone Floor Area {W/m2}
    0,                       !- Watts per Person {W/person}
    ,                        !- Fraction Latent
    0.5,                     !- Fraction Radiant
    ,                        !- Fraction Lost
    Elevators;               !- End-Use Subcategory

ScheduleTypeLimits,
    Fractional,              !- Name
    0,                       !- Lower Limit Value
    1,                       !- Upper Limit Value
    Continuous;              !- Numeric Type

Schedule:Day:Interval,
    OfficeMedium ELEV_LIGHT_FAN_SCH_ADD_DF Default,  !- Name
    Fractional,              !- Schedule Type Limits Name
    No,                      !- Interpolate to Timestep
    24:00,                   !- Time 1 {hh:mm}
    0;                       !- Value Until Time 1

Schedule:Day:Interval,
    OfficeMedium ELEV_LIGHT_FAN_SCH_ADD_DF Wkdy Day,  !- Name
    Fractional,              !- Schedule Type Limits Name
    No,                      !- Interpolate to Timestep
    24:00,                   !- Time 1 {hh:mm}
    0;                       !- Value Until Time 1

Schedule:Day:Interval,
    OfficeMedium ELEV_LIGHT_FAN_SCH_ADD_DF Sat Day,  !- Name
    Fractional,              !- Schedule Type Limits Name
    No,                      !- Interpolate to Timestep
    24:00,                   !- Time 1 {hh:mm}
    0;                       !- Value Until Time 1

Schedule:Week:Daily,
    OfficeMedium ELEV_LIGHT_FAN_SCH_ADD_DF Week Rule - Jan1-Dec31,  !- Name
    OfficeMedium ELEV_LIGHT_FAN_SCH_ADD_DF Default,  !- Sunday Schedule:Day Name