
OS:Version,
  {14567e2f-a044-46cb-8175-50e03f5d2101}, !- Handle
  3.4.0;                                  !- Version Identifier

OS:Building,
  {28aea8a8-c10d-41a0-8321-7eee9f9b550a}, !- Handle
  Building 1,                             !- Name
  ,                                       !- Building Sector Type
  0,                                      !- North Axis {deg}
  ,                                       !- Nominal Floor to Floor Height {m}
  ,                                       !- Space Type Name
  {a6160c9a-8eca-4a6d-adb9-825da285a245}, !- Default Construction Set Name
  ,                                       !- Default Schedule Set Name
  ,                                       !- Standards Number of Stories
  ,                                       !- Standards Number of Above Ground Stories
  ,                                       !- Standards Template
  MediumOffice;                           !- Standards Building Type

OS:Facility,
  {a99b1495-18ee-4688-9405-340f76af329b}; !- Handle

OS:Site,
  {f9eb7d84-58e7-41da-afab-94b9be495beb}, !- Handle
  Site 1,                                 !- Name
  ,                                       !- Latitude {deg}
  ,                                       !- Longitude {deg}
  ,                                       !- Time Zone {hr}
  ,                                       !- Elevation {m}
  City;                                   !- Terrain

OS:SimulationControl,
  {d47bf046-5bfd-4faa-b092-33f6d4862fdd}, !- Handle
  Yes,                                    !- Do Zone Sizing Calculation
  Yes,                                    !- Do System Sizing Calculation
  Yes,                                    !- Do Plant Sizing Calculation
  No,                                     !- Run Simulation for Sizing Periods
  Yes,                                    !- Run Simulation for Weather File Run Periods
  ,                                       !- Loads Convergence Tolerance Value {W}
  ,                                       !- Temperature Convergence Tolerance Value {deltaC}
  FullInteriorAndExterior;                !- Solar Distribution

OS:Sizing:Parameters,
  {436d8f8c-886f-45b4-955c-9e1423d8b1a5}, !- Handle
  1.25,                                   !- Heating Sizing Factor
  1.15;                                   !- Cooling Sizing Factor

OS:Timestep,
  {cd22f5a8-a733-4a2d-8752-1808aab51255}, !- Handle
  6;                                      !- Number of Timesteps per Hour

OS:ShadowCalculation,
  {071fa580-6b1a-4b39-b21c-47a0cabd4c05}, !- Handle
  PolygonClipping,                        !- Shading Calculation Method
  Periodic,                               !- Shading Calculation Update Frequency Method
  7,                                      !- Shading Calculation Update Frequency
  15000,                                  !- Maximum Figures in Shadow Overlap Calculations
  ,                                       !- Polygon Clipping Algorithm
  512,                                    !- Pixel Counting Resolution
  ,                                       !- Sky Diffuse Modeling Algorithm
  No,                                     !- Output External Shading Calculation Results
  No,                                     !- Disable Self-Shading Within Shading Zone Groups
  No;                                     !- Disable Self-Shading From Shading Zone Groups to Other Zones

OS:HeatBalanceAlgorithm,
  {b376b1ba-9913-4c14-a408-ee17755185c2}, !- Handle
  ConductionTransferFunction,             !- Algorithm
  200;                                    !- Surface Temperature Upper Limit {C}

OS:RunPeriod,
  {45407a95-5653-40db-b98b-8dbbfdb9374c}, !- Handle
  Run Period 1,                           !- Name
  1,                                      !- Begin Month
  1,                                      !- Begin Day of Month
  12,                                     !- End Month
  31,                                     !- End Day of Month
  ,                                       !- Use Weather File Holidays and Special Days
  ,                                       !- Use Weather File Daylight Saving Period
  ,                                       !- Apply Weekend Holiday Rule
  ,                                       !- Use Weather File Rain Indicators
  ,                                       !- Use Weather File Snow Indicators
  ;                                       !- Number of Times Runperiod to be Repeated

OS:LifeCycleCost:Parameters,
  {a843769d-1b77-488d-b3d5-7989e2b956d4}, !- Handle
  ,                                       !- Analysis Type
  ,                                       !- Discounting Convention
  ,                                       !- Inflation Approach
  ,                                       !- Real Discount Rate
  ,                                       !- Nominal Discount Rate
  ,                                       !- Inflation
  ,                                       !- Base Date Month
  ,                                       !- Base Date Year
  ,                                       !- Service Date Month
  ,                                       !- Service Date Year
  ;                                       !- Length of Study Period in Years

OS:WeatherFile,
  {e9533c4d-55eb-443c-a8d9-b4b3bde19c7a}, !- Handle
  Tucson-Davis Monthan AFB,               !- City
  AZ,                                     !- State Province Region
  USA,                                    !- Country
  TMY3,                                   !- Data Source
  722745,                                 !- WMO Number
  32.17,                                  !- Latitude {deg}
  -110.88,                                !- Longitude {deg}
  -7,                                     !- Time Zone {hr}
  809,                                    !- Elevation {m}
  C:/Users/admin/master/thermal/ref/in.epw, !- Url
  C53C368B,                               !- Checksum
  ,                                       !- Start Date Actual Year
  Sunday;                                 !- Start Day of Week

OS:SizingPeriod:DesignDay,
  {15676939-1b53-4e8c-bcac-cc085cbe2cb9}, !- Handle
  Tucson-Davis Monthan AFB Heating Design Day 99.6% Condns DB, !- Name
  1,                                      !- Maximum Dry-Bulb Temperature {C}
  0,                                      !- Daily Dry-Bulb Temperature Range {deltaC}
  92091,                                  !- Barometric Pressure {Pa}
  2.4,                                    !- Wind Speed {m/s}
  140,                                    !- Wind Direction {deg}
  0,                                      !- Sky Clearness
  ,                                       !- Rain Indicator
  ,                                       !- Snow Indicator
  21,                                     !- Day of Month
  12,                                     !- Month
  WinterDesignDay,                        !- Day Type
  ,                                       !- Daylight Saving Time Indicator
  Wetbulb,                                !- Humidity Condition Type
  ,                                       !- Humidity Condition Day Schedule Name
  1,                                      !- Wetbulb or DewPoint at Maximum Dry-Bulb {C}
  ,                                       !- Humidity Ratio at Maximum Dry-Bulb {kgWater/kgDryAir}
  ,                                       !- Enthalpy at Maximum Dry-Bulb {J/kg}
  ,                                       !- Dry-Bulb Temperature Range Modifier Type
  ,                                       !- Dry-Bulb Temperature Range Modifier Day Schedule Name
  ASHRAEClearSky;                         !- Solar Model Indicator

OS:SizingPeriod:DesignDay,
  {e9d2b5e9-3b9e-407b-ad66-2568eea04686}, !- Handle
  Tucson-Davis Monthan AFB Cooling Design Day 0.4% Condns DB=>MWB, !- Name
  40,                                     !- Maximum Dry-Bulb Temperature {C}
  16.3,                                   !- Daily Dry-Bulb Temperature Range {deltaC}
  92091,                                  !- Barometric Pressure {Pa}
  4.9,                                    !- Wind Speed {m/s}
  292,                                    !- Wind Direction {deg}
  1,                                      !- Sky Clearness
  ,                                       !- Rain Indicator
  ,                                       !- Snow Indicator
  21,                                     !- Day of Month
  6,                                      !- Month
  SummerDesignDay,                        !- Day Type
  ,                                       !- Daylight Saving Time Indicator
  Wetbulb,                                !- Humidity Condition Type
  ,                                       !- Humidity Condition Day Schedule Name
  17.3,                                   !- Wetbulb or DewPoint at Maximum Dry-Bulb {C}
  ,                                       !- Humidity Ratio at Maximum Dry-Bulb {kgWater/kgDryAir}
  ,                                       !- Enthalpy at Maximum Dry-Bulb {J/kg}
  ,                                       !- Dry-Bulb Temperature Range Modifier Type
  ,                                       !- Dry-Bulb Temperature Range Modifier Day Schedule Name
  ASHRAEClearSky;                         !- Solar Model Indicator

OS:Site:WaterMainsTemperature,
  {102cd8cc-a291-4f5a-bf0b-8b62a0d03ea0}, !- Handle
  CorrelationFromWeatherFile;             !- Calculation Method

OS:ClimateZones,
  {deb4f8d4-e6b2-4c57-8e92-f52ddcf2ce7b}, !- Handle
  ASHRAE,                                 !- Climate Zone Institution Name 1
  ANSI/ASHRAE Standard 169,               !- Climate Zone Document Name 1
  2006,                                   !- Climate Zone Document Year 1
  2A;                                     !- Climate Zone Value 1

OS:Output:Variable,
  {e5b6b5f1-8eef-4b1d-9b82-3e0748217201}, !- Handle
  Output Variable 1,                      !- Name
  ,                                       !- Key Value
  AFN Zone Infiltration Sensible Heat Gain Energy, !- Variable Name
  Hourly;                                 !- Reporting Frequency

OS:Output:Variable,
  {1157ede3-aa31-4a92-a5d6-14d6fa055f4e}, !- Handle
  Output Variable 2,                      !- Name
  ,                                       !- Key Value
  AFN Zone Infiltration Sensible Heat Loss Energy, !- Variable Name
  Hourly;                                 !- Reporting Frequency

OS:Output:Variable,
  {acef7331-7d48-4dd2-be60-dabffac97027}, !- Handle
  Output Variable 3,                      !- Name
  ,                                       !- Key Value
  AFN Zone Ventilation Sensible Heat Gain Energy, !- Variable Name
  Hourly;                                 !- Reporting Frequency

OS:Output:Variable,
  {8f2b0dc5-a2a1-4b58-b1da-77e537cf94dd}, !- Handle
  Output Variable 4,                      !- Name
  ,                                       !- Key Value
  AFN Zone Ventilation Sensible Heat Loss Energy, !- Variable Name
  Hourly;                                 !- Reporting Frequency

OS:Output:Variable,
  {4cf69845-603c-4c5a-ae47-2476f4a81014}, !- Handle
  Output Variable 5,                      !- Name
  ,                                       !- Key Value
  Baseboard Electricity Energy,           !- Variable Name
  Hourly;                                 !- Reporting Frequency

OS:Output:Variable,
  {a8e750b6-5868-4f1e-ae90-78b6e2f772de}, !- Handle
  Output Variable 6,                      !- Name
  ,                                       !- Key Value
  Boiler Electricity Energy,              !- Variable Name
  Hourly;                                 !- Reporting Frequency

OS:Output:Variable,
  {37527fd1-07f9-434e-a479-c236b24a54ca}, !- Handle
  Output Variable 7,                      !- Name
  ,                                       !- Key Value
  Boiler NaturalGas Energy,               !- Variable Name
  Hourly;                                 !- Reporting Frequency

OS:Output:Variable,
  {bec1359d-58e7-4c27-a196-20f5906bd6f6}, !- Handle
  Output Variable 8,                      !- Name
  ,                                       !- Key Value
  Chiller Electricity Energy,             !- Variable Name
  Hourly;                                 !- Reporting Frequency

OS:Output:Variable,
  {cd76966f-c67c-4c20-bd27-297caa0f317e}, !- Handle
  Output Variable 9,                      !- Name
  ,                                       !- Key Value
  Chiller Heater System Cooling Electricity Energy, !- Variable Name
  Hourly;                                 !- Reporting Frequency

OS:Output:Variable,
  {bd1d74b8-cf3e-46d1-a68d-3573d07043c4}, !- Handle
  Output Variable 10,                     !- Name
  ,                                       !- Key Value
  Chiller Heater System Heating Electricity Energy, !- Variable Name
  Hourly;                                 !- Reporting Frequency

OS:Output:Variable,
  {6eb21614-0c63-4332-8b8b-ad5d3e197b3c}, !- Handle
  Output Variable 11,                     !- Name
  ,                                       !- Key Value
  Cooling Coil Electricity Energy,        !- Variable Name
  Hourly;                                 !- Reporting Frequency

OS:Output:Variable,
  {a8be6adf-d7b8-4796-bd1c-6023e12048f9}, !- Handle
  Output Variable 12,                     !- Name
  ,                                       !- Key Value
  Cooling Coil Water Heating Electricity Energy, !- Variable Name
  Hourly;                                 !- Reporting Frequency

OS:Output:Variable,
  {f8c30c4c-fac8-46e8-89c1-99e487b3427b}, !- Handle
  Output Variable 13,                     !- Name
  ,                                       !- Key Value
  Cooling Tower Fan Electricity Energy,   !- Variable Name
  Hourly;                                 !- Reporting Frequency

OS:Output:Variable,
  {f6a9c57b-43f4-490d-80b4-335c4a3f507f}, !- Handle
  Output Variable 14,                     !- Name
  ,                                       !- Key Value
  District Cooling Chilled Water Energy,  !- Variable Name
  Hourly;                                 !- Reporting Frequency

OS:Output:Variable,
  {873af073-d735-4214-b6c6-8448e7f5c66c}, !- Handle
  Output Variable 15,                     !- Name
  ,                                       !- Key Value
  District Heating Hot Water Energy,      !- Variable Name
  Hourly;                                 !- Reporting Frequency

OS:Output:Variable,
  {69345f82-fbbd-4c43-881c-6a3a16dc42e2}, !- Handle
  Output Variable 16,                     !- Name
  ,                                       !- Key Value
  Evaporative Cooler Electricity Energy,  !- Variable Name
  Hourly;                                 !- Reporting Frequency

OS:Output:Variable,
  {1748ed1a-9b60-4f34-9cf7-da02c9155f07}, !- Handle
  Output Variable 17,                     !- Name
  ,                                       !- Key Value
  Fan Electricity Energy,                 !- Variable Name
  Hourly;                                 !- Reporting Frequency

OS:Output:Variable,
  {1f806b45-39d0-4ffd-b1a5-d65815fa70c4}, !- Handle
  Output Variable 18,                     !- Name
  ,                                       !- Key Value
  Heating Coil Electricity Energy,        !- Variable Name
  Hourly;                                 !- Reporting Frequency

OS:Output:Variable,
  {cc6b1f76-5780-4694-bd1d-0b02c7c3fb7a}, !- Handle
  Output Variable 19,                     !- Name
  ,                                       !- Key Value
  Heating Coil NaturalGas Energy,         !- Variable Name
  Hourly;                                 !- Reporting Frequency

OS:Output:Variable,
  {3e53c861-3a43-4165-804b-5229ee83dc30}, !- Handle
  Output Variable 20,                     !- Name
  ,                                       !- Key Value
  Heating Coil Total Heating Energy,      !- Variable Name
  Hourly;                                 !- Reporting Frequency

OS:Output:Variable,
  {02655dc3-ab41-4a66-9884-9fe18d18ec14}, !- Handle
  Output Variable 21,                     !- Name
  ,                                       !- Key Value
  Hot_Water_Loop_Central_Air_Source_Heat_Pump Electricity Consumption, !- Variable Name
  Hourly;                                 !- Reporting Frequency

OS:Output:Variable,
  {a184953a-7cd0-4c05-8a44-8aa6385a2aac}, !- Handle
  Output Variable 22,                     !- Name
  ,                                       !- Key Value
  Humidifier Electricity Energy,          !- Variable Name
  Hourly;                                 !- Reporting Frequency

OS:Output:Variable,
  {a963f73a-1528-4850-836d-465c15c4aad8}, !- Handle
  Output Variable 23,                     !- Name
  ,                                       !- Key Value
  Pump Electricity Energy,                !- Variable Name
  Hourly;                                 !- Reporting Frequency

OS:Output:Variable,
  {463ffc90-5bca-4ced-8c4f-cdcbbb71276d}, !- Handle
  Output Variable 24,                     !- Name
  ,                                       !- Key Value
  Surface Inside Face Conduction Heat Transfer Energy, !- Variable Name
  Hourly;                                 !- Reporting Frequency

OS:Output:Variable,
  {69d4abdf-ca73-4313-be83-cd7731007b2a}, !- Handle
  Output Variable 25,                     !- Name
  ,                                       !- Key Value
  Surface Inside Face Temperature,        !- Variable Name
  Hourly;                                 !- Reporting Frequency

OS:Output:Variable,
  {29e2ade6-1201-4b0b-b7bb-178913c1d5ce}, !- Handle
  Output Variable 26,                     !- Name
  ,                                       !- Key Value
  Surface Outside Face Temperature,       !- Variable Name
  Hourly;                                 !- Reporting Frequency

OS:Output:Variable,
  {c9210428-75dc-4dc3-835a-2697c7ea7516}, !- Handle
  Output Variable 27,                     !- Name
  ,                                       !- Key Value
  Surface Window Heat Gain Energy,        !- Variable Name
  Hourly;                                 !- Reporting Frequency

OS:Output:Variable,
  {45a814db-1a31-4f94-a220-4cc705009a48}, !- Handle
  Output Variable 28,                     !- Name
  ,                                       !- Key Value
  Surface Window Heat Loss Energy,        !- Variable Name
  Hourly;                                 !- Reporting Frequency

OS:Output:Variable,
  {1de87379-0777-4861-819f-0c6306b60344}, !- Handle
  Output Variable 29,                     !- Name
  ,                                       !- Key Value
  VRF Heat Pump Cooling Electricity Energy, !- Variable Name
  Hourly;                                 !- Reporting Frequency

OS:Output:Variable,
  {56729339-a50a-45e1-9efc-f5f60a86d079}, !- Handle
  Output Variable 30,                     !- Name
  ,                                       !- Key Value
  VRF Heat Pump Crankcase Heater Electricity Energy, !- Variable Name
  Hourly;                                 !- Reporting Frequency

OS:Output:Variable,
  {0e9ef94c-c067-4930-9009-3554564a5520}, !- Handle
  Output Variable 31,                     !- Name
  ,                                       !- Key Value
  VRF Heat Pump Defrost Electricity Energy, !- Variable Name
  Hourly;                                 !- Reporting Frequency

OS:Output:Variable,
  {91f5b3b0-edca-43cf-b90c-8b5d6e7cf728}, !- Handle
  Output Variable 32,                     !- Name
  ,                                       !- Key Value
  VRF Heat Pump Heating Electricity Energy, !- Variable Name
  Hourly;                                 !- Reporting Frequency

OS:Output:Variable,
  {ccb51278-f861-4052-80f5-3b8a16a7101c}, !- Handle
  Output Variable 33,                     !- Name
  ,                                       !- Key Value
  Water Heater Electricity Energy,        !- Variable Name
  Hourly;                                 !- Reporting Frequency

OS:Output:Variable,
  {9bb66ad9-62b3-4171-897a-7886778f12b1}, !- Handle
  Output Variable 34,                     !- Name
  ,                                       !- Key Value
  Water Heater NaturalGas Energy,         !- Variable Name
  Hourly;                                 !- Reporting Frequency

OS:Output:Variable,
  {b356eb5e-c40d-4f6b-8b96-2e20a85c21e2}, !- Handle
  Output Variable 35,                     !- Name
  ,                                       !- Key Value
  Water Use Equipment Heating Energy,     !- Variable Name
  Hourly;                                 !- Reporting Frequency

OS:Output:Variable,
  {b3cc7752-8a5c-4125-be4a-742d521811b2}, !- Handle
  Output Variable 36,                     !- Name
  ,                                       !- Key Value
  Zone Air Relative Humidity,             !- Variable Name
  Hourly;                                 !- Reporting Frequency

OS:Output:Variable,
  {94c21f1b-9726-4a1d-a7dc-3af47a408fc5}, !- Handle
  Output Variable 37,                     !- Name
  ,                                       !- Key Value
  Zone Electric Equipment Electricity Energy, !- Variable Name
  Hourly;                                 !- Reporting Frequency

OS:Output:Variable,
  {7219b643-b073-479d-9e43-acb56ce036c4}, !- Handle
  Output Variable 38,                     !- Name
  ,                                       !- Key Value
  Zone Gas Equipment NaturalGas Energy,   !- Variable Name
  Hourly;                                 !- Reporting Frequency

OS:Output:Variable,
  {6aa2203c-a3ff-4db0-9572-01be80f8f43e}, !- Handle
  Output Variable 39,                     !- Name
  ,                                       !- Key Value
  Zone Ideal Loads Supply Air Total Cooling Energy, !- Variable Name
  Hourly;                                 !- Reporting Frequency

OS:Output:Variable,
  {b47d2b08-bafc-452e-bbdb-453949c94638}, !- Handle
  Output Variable 40,                     !- Name
  ,                                       !- Key Value
  Zone Ideal Loads Supply Air Total Heating Energy, !- Variable Name
  Hourly;                                 !- Reporting Frequency

OS:Output:Variable,
  {d572d119-0f3a-4539-8f94-dbb6e2c2ba96}, !- Handle
  Output Variable 41,                     !- Name
  ,                                       !- Key Value
  Zone Ideal Loads Zone Total Cooling Energy, !- Variable Name
  Hourly;                                 !- Reporting Frequency

OS:Output:Variable,
  {c884eac8-35bd-4617-b0bd-56a7cd4b621e}, !- Handle
  Output Variable 42,                     !- Name
  ,                                       !- Key Value
  Zone Ideal Loads Zone Total Heating Energy, !- Variable Name
  Hourly;                                 !- Reporting Frequency

OS:Output:Variable,
  {833a3712-8cb7-4d42-bccb-4dfd5b92df7d}, !- Handle
  Output Variable 43,                     !- Name
  ,                                       !- Key Value
  Zone Infiltration Total Heat Gain Energy, !- Variable Name
  Hourly;                                 !- Reporting Frequency

OS:Output:Variable,
  {f10d2c37-ac61-4888-ad0e-a9bf7d1be638}, !- Handle
  Output Variable 44,                     !- Name
  ,                                       !- Key Value
  Zone Infiltration Total Heat Loss Energy, !- Variable Name
  Hourly;                                 !- Reporting Frequency

OS:Output:Variable,
  {0a11ceb2-16db-465f-aaaf-19317b1b5ea6}, !- Handle
  Output Variable 45,                     !- Name
  ,                                       !- Key Value
  Zone Lights Electricity Energy,         !- Variable Name
  Hourly;                                 !- Reporting Frequency

OS:Output:Variable,
  {06ba80b7-dc25-4ee5-945c-6133937dab4b}, !- Handle
  Output Variable 46,                     !- Name
  ,                                       !- Key Value
  Zone Mean Air Temperature,              !- Variable Name
  Hourly;                                 !- Reporting Frequency

OS:Output:Variable,
  {a4ffd40f-6c4f-4ba1-9b91-5aee89ff2d6c}, !- Handle
  Output Variable 47,                     !- Name
  ,                                       !- Key Value
  Zone Mean Radiant Temperature,          !- Variable Name
  Hourly;                                 !- Reporting Frequency

OS:Output:Variable,
  {8812c61f-9233-4459-90c8-85a9cf66cd39}, !- Handle
  Output Variable 48,                     !- Name
  ,                                       !- Key Value
  Zone Operative Temperature,             !- Variable Name
  Hourly;                                 !- Reporting Frequency

OS:Output:Variable,
  {44da2bd3-8e30-464e-a5f8-be20080a5d63}, !- Handle
  Output Variable 49,                     !- Name
  ,                                       !- Key Value
  Zone Other Equipment Lost Heat Energy,  !- Variable Name
  Hourly;                                 !- Reporting Frequency

OS:Output:Variable,
  {b5d8ffc7-e324-4fac-8435-294a5abc580d}, !- Handle
  Output Variable 50,                     !- Name
  ,                                       !- Key Value
  Zone Other Equipment Total Heating Energy, !- Variable Name
  Hourly;                                 !- Reporting Frequency

OS:Output:Variable,
  {510c43a8-f8bc-4d75-87b5-3b9c73c67c97}, !- Handle
  Output Variable 51,                     !- Name
  ,                                       !- Key Value
  Zone People Total Heating Energy,       !- Variable Name
  Hourly;                                 !- Reporting Frequency

OS:Output:Variable,
  {b1a055e1-205f-4a6f-8c2f-2247d2204367}, !- Handle
  Output Variable 52,                     !- Name
  ,                                       !- Key Value
  Zone VRF Air Terminal Cooling Electricity Energy, !- Variable Name
  Hourly;                                 !- Reporting Frequency

OS:Output:Variable,
  {c2dec5cc-535e-40ac-bc95-7bf6b6c87f8a}, !- Handle
  Output Variable 53,                     !- Name
  ,                                       !- Key Value
  Zone VRF Air Terminal Heating Electricity Energy, !- Variable Name
  Hourly;                                 !- Reporting Frequency

OS:Output:Variable,
  {38b72956-6786-4aaa-b605-ffc84e79d106}, !- Handle
  Output Variable 54,                     !- Name
  ,                                       !- Key Value
  Zone Ventilation Fan Electricity Energy, !- Variable Name
  Hourly;                                 !- Reporting Frequency

OS:Output:Variable,
  {d9d8cfe4-2624-49b2-997a-b0a1aa6b138f}, !- Handle
  Output Variable 55,                     !- Name
  ,                                       !- Key Value
  Zone Ventilation Total Heat Gain Energy, !- Variable Name
  Hourly;                                 !- Reporting Frequency

OS:Output:Variable,
  {dfd99b22-d5dc-4e31-8fff-63c6a4b140f1}, !- Handle
  Output Variable 56,                     !- Name
  ,                                       !- Key Value
  Zone Ventilation Total Heat Loss Energy, !- Variable Name
  Hourly;                                 !- Reporting Frequency

OS:Output:Variable,
  {3c5f8db9-d872-4c3b-9e29-89f7f1158823}, !- Handle
  Output Variable 57,                     !- Name
  ,                                       !- Key Value
  Zone Windows Total Transmitted Solar Radiation Energy, !- Variable Name
  Hourly;                                 !- Reporting Frequency

OS:Output:Table:SummaryReports,
  {fe7f9448-277d-4052-9edc-c62d3cf7726b}, !- Handle
  AllSummary;                             !- Report Name 1

OS:YearDescription,
  {ed7e92bf-62e6-4e48-aaae-99ec60327f94}, !- Handle
  ,                                       !- Calendar Year
  Sunday,                                 !- Day of Week for Start Day
  No;                                     !- Is Leap Year

OS:ScheduleTypeLimits,
  {09f3fe0b-e24a-47cd-ad03-f2cde45b61c6}, !- Handle
  Temperature,                            !- Name
  -273.15,                                !- Lower Limit Value
  ,                                       !- Upper Limit Value
  Continuous,                             !- Numeric Type
  Temperature;                            !- Unit Type

OS:ScheduleTypeLimits,
  {7535dd8c-586a-4726-879b-3fe2180873a7}, !- Handle
  Activity Level,                         !- Name
  0,                                      !- Lower Limit Value
  ,                                       !- Upper Limit Value
  Continuous,                             !- Numeric Type
  ActivityLevel;                          !- Unit Type

OS:ScheduleTypeLimits,
  {5a8ec6a0-e69d-4493-8187-795bbcf3a3b4}, !- Handle
  Fractional,                             !- Name
  0,                                      !- Lower Limit Value
  1,                                      !- Upper Limit Value
  Continuous,                             !- Numeric Type
  Dimensionless;                          !- Unit Type

OS:Schedule:Ruleset,
  {1763bace-9329-49aa-8160-be5c22864d8b}, !- Handle
  Generic Office Infiltration,            !- Name
  {5a8ec6a0-e69d-4493-8187-795bbcf3a3b4}, !- Schedule Type Limits Name
  {93e54c81-2158-402a-91bb-7abea63ebb91}, !- Default Day Schedule Name
  {bdb5ec0a-9da9-4da9-a820-207a9d582ba9}, !- Summer Design Day Schedule Name
  {f8de2d92-9551-4479-9c2f-f9463fed45b2}; !- Winter Design Day Schedule Name

OS:Schedule:Day,
  {93e54c81-2158-402a-91bb-7abea63ebb91}, !- Handle
  OfficeMedium INFIL_SCH_PNNL_Default,    !- Name
  {5a8ec6a0-e69d-4493-8187-795bbcf3a3b4}, !- Schedule Type Limits Name
  ,                                       !- Interpolate to Timestep
  24,                                     !- Hour 1
  0,                                      !- Minute 1
  1;                                      !- Value Until Time 1

OS:Schedule:Day,
  {9c935a67-b31b-45a5-b8e3-a5a0247012ce}, !- Handle
  OfficeMedium INFIL_SCH_PNNL_Wkdy_SmrDsn, !- Name
  {5a8ec6a0-e69d-4493-8187-795bbcf3a3b4}, !- Schedule Type Limits Name
  ,                                       !- Interpolate to Timestep
  6,                                      !- Hour 1
  0,                                      !- Minute 1
  1,                                      !- Value Until Time 1