
OS:Version,
  {396f9882-1d30-4556-acc8-4d4a5728188a}, !- Handle
  3.4.0;                                  !- Version Identifier

OS:Building,
  {3758ddec-39a0-4c58-b2c3-d1ce8b3c456c}, !- Handle
  Building 1,                             !- Name
  ,                                       !- Building Sector Type
  0,                                      !- North Axis {deg}
  ,                                       !- Nominal Floor to Floor Height {m}
  ,                                       !- Space Type Name
  {7cb68570-cb4c-432d-8ae5-4cba90e662b4}, !- Default Construction Set Name
  ,                                       !- Default Schedule Set Name
  ,                                       !- Standards Number of Stories
  ,                                       !- Standards Number of Above Ground Stories
  ,                                       !- Standards Template
  MediumOffice;                           !- Standards Building Type

OS:Facility,
  {af600932-3300-47d8-b77b-bffef0783914}; !- Handle

OS:Site,
  {89db1f9e-415f-4eee-8fa4-553e3d8da21b}, !- Handle
  Site 1,                                 !- Name
  ,                                       !- Latitude {deg}
  ,                                       !- Longitude {deg}
  ,                                       !- Time Zone {hr}
  ,                                       !- Elevation {m}
  City;                                   !- Terrain

OS:SimulationControl,
  {8c0d1b2f-e431-49f6-a3ad-8a5356cff20d}, !- Handle
  Yes,                                    !- Do Zone Sizing Calculation
  Yes,                                    !- Do System Sizing Calculation
  Yes,                                    !- Do Plant Sizing Calculation
  No,                                     !- Run Simulation for Sizing Periods
  Yes,                                    !- Run Simulation for Weather File Run Periods
  ,                                       !- Loads Convergence Tolerance Value {W}
  ,                                       !- Temperature Convergence Tolerance Value {deltaC}
  FullInteriorAndExterior;                !- Solar Distribution

OS:Sizing:Parameters,
  {6ffe8f7b-2060-49b9-9d0b-20de7a6609aa}, !- Handle
  1,                                      !- Heating Sizing Factor
  1;                                      !- Cooling Sizing Factor

OS:Timestep,
  {85f7f3ee-f4b9-4b09-a28f-eeca2478a8a7}, !- Handle
  6;                                      !- Number of Timesteps per Hour

OS:ShadowCalculation,
  {8852fd35-0785-4f4d-9fa8-184ba4fcd292}, !- Handle
  PolygonClipping,                        !- Shading Calculation Method
  Periodic,                               !- Shading Calculation Update Frequency Method
  7,                                      !- Shading Calculation Update Frequency
  15000,                                  !- Maximum Figures in Shadow Overlap Calculations
  ,                                       !- Polygon Clipping Algorithm
  512,                                    !- Pixel Counting Resolution
  ,                                       !- Sky Diffuse Modeling Algorithm
  No,                                     !- Output External Shading Calculation Results
  No,                                     !- Disable Self-Shading Within Shading Zone Groups
  No;                                     !- Disable Self-Shading From Shading Zone Groups to Other Zones

OS:HeatBalanceAlgorithm,
  {4a714f56-ff77-462c-b3b7-ea8cda5ac66c}, !- Handle
  ConductionTransferFunction,             !- Algorithm
  200;                                    !- Surface Temperature Upper Limit {C}

OS:RunPeriod,
  {13b1706d-2426-4d7a-afa6-9422b1a26e5d}, !- Handle
  Run Period 1,                           !- Name
  1,                                      !- Begin Month
  1,                                      !- Begin Day of Month
  12,                                     !- End Month
  31,                                     !- End Day of Month
  ,                                       !- Use Weather File Holidays and Special Days
  ,                                       !- Use Weather File Daylight Saving Period
  ,                                       !- Apply Weekend Holiday Rule
  ,                                       !- Use Weather File Rain Indicators
  ,                                       !- Use Weather File Snow Indicators
  ;                                       !- Number of Times Runperiod to be Repeated

OS:LifeCycleCost:Parameters,
  {8373c269-1227-44a5-9c6c-87c5b93882af}, !- Handle
  ,                                       !- Analysis Type
  ,                                       !- Discounting Convention
  ,                                       !- Inflation Approach
  ,                                       !- Real Discount Rate
  ,                                       !- Nominal Discount Rate
  ,                                       !- Inflation
  ,                                       !- Base Date Month
  ,                                       !- Base Date Year
  ,                                       !- Service Date Month
  ,                                       !- Service Date Year
  ;                                       !- Length of Study Period in Years

OS:WeatherFile,
  {67e05699-8ad1-4a94-af27-b0beefd96b99}, !- Handle
  Tucson-Davis Monthan AFB,               !- City
  AZ,                                     !- State Province Region
  USA,                                    !- Country
  TMY3,                                   !- Data Source
  722745,                                 !- WMO Number
  32.17,                                  !- Latitude {deg}
  -110.88,                                !- Longitude {deg}
  -7,                                     !- Time Zone {hr}
  809,                                    !- Elevation {m}
  C:/Users/admin/master/thermal/resources/weather/USA_AZ_Tucson-Davis-Monthan.AFB.722745_TMY3.epw, !- Url
  C53C368B,                               !- Checksum
  ,                                       !- Start Date Actual Year
  Sunday;                                 !- Start Day of Week

OS:Site:WaterMainsTemperature,
  {4478745d-c661-49d4-9295-01791dfd2385}, !- Handle
  CorrelationFromWeatherFile;             !- Calculation Method

OS:ClimateZones,
  {4eaaaec0-9662-4e99-8f83-c2982f05a6c9}, !- Handle
  ASHRAE,                                 !- Climate Zone Institution Name 1
  ANSI/ASHRAE Standard 169,               !- Climate Zone Document Name 1
  2006,                                   !- Climate Zone Document Year 1
  2A;                                     !- Climate Zone Value 1

OS:Output:Variable,
  {93b5667b-7b30-4427-a429-02ebea3ce68f}, !- Handle
  Output Variable 1,                      !- Name
  ,                                       !- Key Value
  AFN Zone Infiltration Sensible Heat Gain Energy, !- Variable Name
  Hourly;                                 !- Reporting Frequency

OS:Output:Variable,
  {a6781f1f-9dc6-4a28-a673-46c621861dff}, !- Handle
  Output Variable 2,                      !- Name
  ,                                       !- Key Value
  AFN Zone Infiltration Sensible Heat Loss Energy, !- Variable Name
  Hourly;                                 !- Reporting Frequency

OS:Output:Variable,
  {ce67c045-a30b-447d-b81e-80b30528e2e7}, !- Handle
  Output Variable 3,                      !- Name
  ,                                       !- Key Value
  AFN Zone Ventilation Sensible Heat Gain Energy, !- Variable Name
  Hourly;                                 !- Reporting Frequency

OS:Output:Variable,
  {05c5886a-2837-4984-8560-6d529b6c787e}, !- Handle
  Output Variable 4,                      !- Name
  ,                                       !- Key Value
  AFN Zone Ventilation Sensible Heat Loss Energy, !- Variable Name
  Hourly;                                 !- Reporting Frequency

OS:Output:Variable,
  {0593ef64-2c65-4c41-9416-6ed30449f6b2}, !- Handle
  Output Variable 5,                      !- Name
  ,                                       !- Key Value
  Baseboard Electricity Energy,           !- Variable Name
  Hourly;                                 !- Reporting Frequency

OS:Output:Variable,
  {8e27421f-7a58-442f-b5ac-99422b4b2d78}, !- Handle
  Output Variable 6,                      !- Name
  ,                                       !- Key Value
  Boiler Electricity Energy,              !- Variable Name
  Hourly;                                 !- Reporting Frequency

OS:Output:Variable,
  {f36a9211-f2a1-4821-be8b-50fd92649d6b}, !- Handle
  Output Variable 7,                      !- Name
  ,                                       !- Key Value
  Boiler NaturalGas Energy,               !- Variable Name
  Hourly;                                 !- Reporting Frequency

OS:Output:Variable,
  {100d9d21-00f7-4918-9b6c-068f7d3ad079}, !- Handle
  Output Variable 8,                      !- Name
  ,                                       !- Key Value
  Chiller Electricity Energy,             !- Variable Name
  Hourly;                                 !- Reporting Frequency

OS:Output:Variable,
  {4bed2f88-392f-4c70-b83a-09512018c78a}, !- Handle
  Output Variable 9,                      !- Name
  ,                                       !- Key Value
  Chiller Heater System Cooling Electricity Energy, !- Variable Name
  Hourly;                                 !- Reporting Frequency

OS:Output:Variable,
  {68bc3f54-61f1-4863-bf9b-cd040282b794}, !- Handle
  Output Variable 10,                     !- Name
  ,                                       !- Key Value
  Chiller Heater System Heating Electricity Energy, !- Variable Name
  Hourly;                                 !- Reporting Frequency

OS:Output:Variable,
  {4bde3e90-0830-43cd-b321-1d4fd4299e02}, !- Handle
  Output Variable 11,                     !- Name
  ,                                       !- Key Value
  Cooling Coil Electricity Energy,        !- Variable Name
  Hourly;                                 !- Reporting Frequency

OS:Output:Variable,
  {36708a31-d73e-4a26-a73b-dc23d4445e11}, !- Handle
  Output Variable 12,                     !- Name
  ,                                       !- Key Value
  Cooling Coil Water Heating Electricity Energy, !- Variable Name
  Hourly;                                 !- Reporting Frequency

OS:Output:Variable,
  {61218645-1826-4541-bfb4-1591da0efc49}, !- Handle
  Output Variable 13,                     !- Name
  ,                                       !- Key Value
  Cooling Tower Fan Electricity Energy,   !- Variable Name
  Hourly;                                 !- Reporting Frequency

OS:Output:Variable,
  {14da9588-94a9-4abb-a069-3c778a37c67e}, !- Handle
  Output Variable 14,                     !- Name
  ,                                       !- Key Value
  District Cooling Chilled Water Energy,  !- Variable Name
  Hourly;                                 !- Reporting Frequency

OS:Output:Variable,
  {e6b52e00-caa4-4947-94cf-848b57bdfdfb}, !- Handle
  Output Variable 15,                     !- Name
  ,                                       !- Key Value
  District Heating Hot Water Energy,      !- Variable Name
  Hourly;                                 !- Reporting Frequency

OS:Output:Variable,
  {22fa86df-05f5-47eb-84f0-1b95403312e4}, !- Handle
  Output Variable 16,                     !- Name
  ,                                       !- Key Value
  Evaporative Cooler Electricity Energy,  !- Variable Name
  Hourly;                                 !- Reporting Frequency

OS:Output:Variable,
  {e27422af-299b-4422-9062-2ead84dbc79a}, !- Handle
  Output Variable 17,                     !- Name
  ,                                       !- Key Value
  Fan Electricity Energy,                 !- Variable Name
  Hourly;                                 !- Reporting Frequency

OS:Output:Variable,
  {de47246a-4a36-4c09-bade-248bab6cd8a8}, !- Handle
  Output Variable 18,                     !- Name
  ,                                       !- Key Value
  Heating Coil Electricity Energy,        !- Variable Name
  Hourly;                                 !- Reporting Frequency

OS:Output:Variable,
  {9e5c8552-7d15-46ff-8145-c4c2f11c4456}, !- Handle
  Output Variable 19,                     !- Name
  ,                                       !- Key Value
  Heating Coil NaturalGas Energy,         !- Variable Name
  Hourly;                                 !- Reporting Frequency

OS:Output:Variable,
  {34b4704b-6c76-4c95-9521-2d3515ce723b}, !- Handle
  Output Variable 20,                     !- Name
  ,                                       !- Key Value
  Heating Coil Total Heating Energy,      !- Variable Name
  Hourly;                                 !- Reporting Frequency

OS:Output:Variable,
  {eb2610b0-af1a-4df0-83ce-2121d709aaba}, !- Handle
  Output Variable 21,                     !- Name
  ,                                       !- Key Value
  Hot_Water_Loop_Central_Air_Source_Heat_Pump Electricity Consumption, !- Variable Name
  Hourly;                                 !- Reporting Frequency

OS:Output:Variable,
  {c83de9b9-885e-4ef7-8fef-ae4a42032c08}, !- Handle
  Output Variable 22,                     !- Name
  ,                                       !- Key Value
  Humidifier Electricity Energy,          !- Variable Name
  Hourly;                                 !- Reporting Frequency

OS:Output:Variable,
  {54a06241-d895-43fa-a2eb-fcc9300ecef9}, !- Handle
  Output Variable 23,                     !- Name
  ,                                       !- Key Value
  Pump Electricity Energy,                !- Variable Name
  Hourly;                                 !- Reporting Frequency

OS:Output:Variable,
  {c02d3f7e-6809-458c-a8b5-054b4d185015}, !- Handle
  Output Variable 24,                     !- Name
  ,                                       !- Key Value
  Surface Inside Face Conduction Heat Transfer Energy, !- Variable Name
  Hourly;                                 !- Reporting Frequency

OS:Output:Variable,
  {44997360-fb5e-4587-8f97-7eedc877358e}, !- Handle
  Output Variable 25,                     !- Name
  ,                                       !- Key Value
  Surface Inside Face Temperature,        !- Variable Name
  Hourly;                                 !- Reporting Frequency

OS:Output:Variable,
  {d474b802-cc07-4a6a-a063-de3960500d55}, !- Handle
  Output Variable 26,                     !- Name
  ,                                       !- Key Value
  Surface Outside Face Temperature,       !- Variable Name
  Hourly;                                 !- Reporting Frequency

OS:Output:Variable,
  {368ccd27-5156-4b04-aaa1-47039920fccc}, !- Handle
  Output Variable 27,                     !- Name
  ,                                       !- Key Value
  Surface Window Heat Gain Energy,        !- Variable Name
  Hourly;                                 !- Reporting Frequency

OS:Output:Variable,
  {a238a66d-b693-49cb-9c63-5b896e206627}, !- Handle
  Output Variable 28,                     !- Name
  ,                                       !- Key Value
  Surface Window Heat Loss Energy,        !- Variable Name
  Hourly;                                 !- Reporting Frequency

OS:Output:Variable,
  {742e353d-06de-455c-bb34-522815e1ce9d}, !- Handle
  Output Variable 29,                     !- Name
  ,                                       !- Key Value
  VRF Heat Pump Cooling Electricity Energy, !- Variable Name
  Hourly;                                 !- Reporting Frequency

OS:Output:Variable,
  {a69d7500-50b6-41d0-ae03-515ddcb1311b}, !- Handle
  Output Variable 30,                     !- Name
  ,                                       !- Key Value
  VRF Heat Pump Crankcase Heater Electricity Energy, !- Variable Name
  Hourly;                                 !- Reporting Frequency

OS:Output:Variable,
  {3dd936da-b762-41de-8376-43a0844fdc2a}, !- Handle
  Output Variable 31,                     !- Name
  ,                                       !- Key Value
  VRF Heat Pump Defrost Electricity Energy, !- Variable Name
  Hourly;                                 !- Reporting Frequency

OS:Output:Variable,
  {8478805f-3399-46cc-a0ac-4e9dddc1d4c2}, !- Handle
  Output Variable 32,                     !- Name
  ,                                       !- Key Value
  VRF Heat Pump Heating Electricity Energy, !- Variable Name
  Hourly;                                 !- Reporting Frequency

OS:Output:Variable,
  {584091f7-3a28-462e-978c-341bc5d94941}, !- Handle
  Output Variable 33,                     !- Name
  ,                                       !- Key Value
  Water Heater Electricity Energy,        !- Variable Name
  Hourly;                                 !- Reporting Frequency

OS:Output:Variable,
  {a06d0bb0-cadf-4a64-8073-f01334adaee4}, !- Handle
  Output Variable 34,                     !- Name
  ,                                       !- Key Value
  Water Heater NaturalGas Energy,         !- Variable Name
  Hourly;                                 !- Reporting Frequency

OS:Output:Variable,
  {f60eaf8f-76e6-4d6e-9609-19c1d68a8080}, !- Handle
  Output Variable 35,                     !- Name
  ,                                       !- Key Value
  Water Use Equipment Heating Energy,     !- Variable Name
  Hourly;                                 !- Reporting Frequency

OS:Output:Variable,
  {873b4f1b-48fc-40d7-a536-c1041249c852}, !- Handle
  Output Variable 36,                     !- Name
  ,                                       !- Key Value
  Zone Air Relative Humidity,             !- Variable Name
  Hourly;                                 !- Reporting Frequency

OS:Output:Variable,
  {04ebc29b-072e-4d69-930a-e5da59c9273b}, !- Handle
  Output Variable 37,                     !- Name
  ,                                       !- Key Value
  Zone Electric Equipment Electricity Energy, !- Variable Name
  Hourly;                                 !- Reporting Frequency

OS:Output:Variable,
  {a57336da-95f5-43ce-a56c-da85037b517b}, !- Handle
  Output Variable 38,                     !- Name
  ,                                       !- Key Value
  Zone Gas Equipment NaturalGas Energy,   !- Variable Name
  Hourly;                                 !- Reporting Frequency

OS:Output:Variable,
  {cd3c1ee6-a0f7-4bd1-9e80-e84e1367abe2}, !- Handle
  Output Variable 39,                     !- Name
  ,                                       !- Key Value
  Zone Ideal Loads Supply Air Total Cooling Energy, !- Variable Name
  Hourly;                                 !- Reporting Frequency

OS:Output:Variable,
  {e0128a7e-2bd1-4862-9bae-30b514d9578c}, !- Handle
  Output Variable 40,                     !- Name
  ,                                       !- Key Value
  Zone Ideal Loads Supply Air Total Heating Energy, !- Variable Name
  Hourly;                                 !- Reporting Frequency

OS:Output:Variable,
  {ce92294b-c4d9-4622-9378-0b41786474d5}, !- Handle
  Output Variable 41,                     !- Name
  ,                                       !- Key Value
  Zone Ideal Loads Zone Total Cooling Energy, !- Variable Name
  Hourly;                                 !- Reporting Frequency

OS:Output:Variable,
  {3a4f49d8-5ca7-4589-8654-4f2c3120b794}, !- Handle
  Output Variable 42,                     !- Name
  ,                                       !- Key Value
  Zone Ideal Loads Zone Total Heating Energy, !- Variable Name
  Hourly;                                 !- Reporting Frequency

OS:Output:Variable,
  {cc5b9d19-e4fa-4e6e-9377-ece8567ea093}, !- Handle
  Output Variable 43,                     !- Name
  ,                                       !- Key Value
  Zone Infiltration Total Heat Gain Energy, !- Variable Name
  Hourly;                                 !- Reporting Frequency

OS:Output:Variable,
  {d9a7a6e9-de37-4ba8-92ef-ed8c70ff9458}, !- Handle
  Output Variable 44,                     !- Name
  ,                                       !- Key Value
  Zone Infiltration Total Heat Loss Energy, !- Variable Name
  Hourly;                                 !- Reporting Frequency

OS:Output:Variable,
  {49ba1cc7-f197-4dc8-a12c-ba1b1bc010c7}, !- Handle
  Output Variable 45,                     !- Name
  ,                                       !- Key Value
  Zone Lights Electricity Energy,         !- Variable Name
  Hourly;                                 !- Reporting Frequency

OS:Output:Variable,
  {11127e17-7038-4d45-b5d9-40d8abeeb18c}, !- Handle
  Output Variable 46,                     !- Name
  ,                                       !- Key Value
  Zone Mean Air Temperature,              !- Variable Name
  Hourly;                                 !- Reporting Frequency

OS:Output:Variable,
  {29cf7d08-c8cf-4226-8260-2bb122a0d37f}, !- Handle
  Output Variable 47,                     !- Name
  ,                                       !- Key Value
  Zone Mean Radiant Temperature,          !- Variable Name
  Hourly;                                 !- Reporting Frequency

OS:Output:Variable,
  {de06e374-fd89-4614-b3e9-06d6b67531e3}, !- Handle
  Output Variable 48,                     !- Name
  ,                                       !- Key Value
  Zone Operative Temperature,             !- Variable Name
  Hourly;                                 !- Reporting Frequency

OS:Output:Variable,
  {0fbfcd33-f7ed-480f-aa10-babd2823e429}, !- Handle
  Output Variable 49,                     !- Name
  ,                                       !- Key Value
  Zone Other Equipment Lost Heat Energy,  !- Variable Name
  Hourly;                                 !- Reporting Frequency

OS:Output:Variable,
  {df09bb46-5bfb-40e5-87e3-493ac5905f91}, !- Handle
  Output Variable 50,                     !- Name
  ,                                       !- Key Value
  Zone Other Equipment Total Heating Energy, !- Variable Name
  Hourly;                                 !- Reporting Frequency

OS:Output:Variable,
  {ce36b067-5219-41ff-bfdc-dbe1cf90643e}, !- Handle
  Output Variable 51,                     !- Name
  ,                                       !- Key Value
  Zone People Total Heating Energy,       !- Variable Name
  Hourly;                                 !- Reporting Frequency

OS:Output:Variable,
  {ade8594d-6960-4785-8249-d06e71ddf256}, !- Handle
  Output Variable 52,                     !- Name
  ,                                       !- Key Value
  Zone VRF Air Terminal Cooling Electricity Energy, !- Variable Name
  Hourly;                                 !- Reporting Frequency

OS:Output:Variable,
  {aae15600-3944-48b2-bb5b-5953b702203c}, !- Handle
  Output Variable 53,                     !- Name
  ,                                       !- Key Value
  Zone VRF Air Terminal Heating Electricity Energy, !- Variable Name
  Hourly;                                 !- Reporting Frequency

OS:Output:Variable,
  {65062cdb-5410-4471-a65e-eb2829874975}, !- Handle
  Output Variable 54,                     !- Name
  ,                                       !- Key Value
  Zone Ventilation Fan Electricity Energy, !- Variable Name
  Hourly;                                 !- Reporting Frequency

OS:Output:Variable,
  {27ddb859-7114-47fa-9bc2-dd0a25d6142e}, !- Handle
  Output Variable 55,                     !- Name
  ,                                       !- Key Value
  Zone Ventilation Total Heat Gain Energy, !- Variable Name
  Hourly;                                 !- Reporting Frequency

OS:Output:Variable,
  {933293b6-60f1-4cb9-b70c-6b589856ded9}, !- Handle
  Output Variable 56,                     !- Name
  ,                                       !- Key Value
  Zone Ventilation Total Heat Loss Energy, !- Variable Name
  Hourly;                                 !- Reporting Frequency

OS:Output:Variable,
  {87a2931f-d1a8-4960-bac9-d7cac6c7690b}, !- Handle
  Output Variable 57,                     !- Name
  ,                                       !- Key Value
  Zone Windows Total Transmitted Solar Radiation Energy, !- Variable Name
  Hourly;                                 !- Reporting Frequency

OS:Output:Table:SummaryReports,
  {6ccaf9ae-9c19-4670-9056-155b6be792cd}, !- Handle
  AllSummary;                             !- Report Name 1

OS:YearDescription,
  {07a00e56-5ae8-4aab-943e-1ab1e0071300}, !- Handle
  ,                                       !- Calendar Year
  Sunday,                                 !- Day of Week for Start Day
  No;                                     !- Is Leap Year

OS:ScheduleTypeLimits,
  {36083519-24d9-4c59-959d-71eb03f987ef}, !- Handle
  Temperature,                            !- Name
  -273.15,                                !- Lower Limit Value
  ,                                       !- Upper Limit Value
  Continuous,                             !- Numeric Type
  Temperature;                            !- Unit Type

OS:ScheduleTypeLimits,
  {78a609a7-a7e3-4e39-8c17-d0dad3ec50a8}, !- Handle
  Fractional,                             !- Name
  0,                                      !- Lower Limit Value
  1,                                      !- Upper Limit Value
  Continuous,                             !- Numeric Type
  Dimensionless;                          !- Unit Type

OS:Schedule:Ruleset,
  {5cf05915-dc55-4112-bcb5-784ecffeaba5}, !- Handle
  Courthouse BLDG_EQUIP_SCH,              !- Name
  {78a609a7-a7e3-4e39-8c17-d0dad3ec50a8}, !- Schedule Type Limits Name
  {536b666c-33a2-4c5f-990f-f514e9e21e43}, !- Default Day Schedule Name
  {a5c3732b-6efc-4e1d-8ddb-0db403cda30d}, !- Summer Design Day Schedule Name
  {c98f23c0-aa62-44d1-92a3-23b9842106e6}; !- Winter Design Day Schedule Name

OS:Schedule:Day,
  {536b666c-33a2-4c5f-990f-f514e9e21e43}, !- Handle
  Courthouse BLDG_EQUIP_SCH_Sat,          !- Name
  {78a609a7-a7e3-4e39-8c17-d0dad3ec50a8}, !- Schedule Type Limits Name
  ,                                       !- Interpolate to Timestep
  6,                                      !- Hour 1
  0,                                      !- Minute 1
  0.238136,                               !- Value Until Time 1
  8,                                      !- Hour 2
  0,                                      !- Minute 2
  0.384143,                               !- Value Until Time 2
  12,                                     !- Hour 3
  0,                                      !- Minute 3
  0.480179,                               !- Value Until Time 3
  17,                                     !- Hour 4
  0,                                      !- Minute 4
  0.336125,                               !- Value Until Time 4
  19,                                     !- Hour 5
  0,                                      !- Minute 5
  0.288107,                               !- Value Until Time 5
  24,                                     !- Hour 6
  0,                                      !- Minute 6
  0.238136;                               !- Value Until Time 6

OS:Schedule:Day,
  {40f130fa-b3f4-44b8-81c1-994c198ecbbe}, !- Handle
  Courthouse BLDG_EQUIP_SCH_SmrDsn,       !- Name
  {78a609a7-a7e3-4e39-8c17-d0dad3ec50a8}, !- Schedule Type Limits Name
  ,                                       !- Interpolate to Timestep
  24,                                     !- Hour 1
  0,                                      !- Minute 1
  1;                                      !- Value Until Time 1

OS:Schedule:Day,
  {3f0e54ce-5f63-4da5-bb58-6ff806723463}, !- Handle
  Courthouse BLDG_EQUIP_SCH_WntrDsn,      !- Name
  {78a609a7-a7e3-4e39-8c17-d0dad3ec50a8}, !- Schedule Type Limits Name
  ,                                       !- Interpolate to Timestep
  24,                                     !- Hour 1
  0,                                      !- Minute 1
  0;                                      !- Value Until Time 1

OS:Schedule:Day,
  {5930101a-2980-44c7-958b-f78c8a4c2236}, !- Handle
  Courthouse BLDG_EQUIP_SCH_Sun,          !- Name
  {78a609a7-a7e3-4e39-8c17-d0dad3ec50a8}, !- Schedule Type Limits Name
  ,                                       !- Interpolate to Timestep
  6,                                      !- Hour 1
  0,                                      !- Minute 1
  0.238136,                               !- Value Until Time 1
  18,                                     !- Hour 2
  0,                                      !- Minute 2
  0.288107,                               !- Value Until Time 2
  24,                                     !- Hour 3
  0,                                      !- Minute 3
  0.238136;                               !- Value Until Time 3

OS:Schedule:Day,
  {ba7d5792-bc4c-4be3-965f-8e63152a17d5}, !- Handle
  Courthouse BLDG_EQUIP_SCH_Wkdy,         !- Name
  {78a609a7-a7e3-4e39-8c17-d0dad3ec50a8}, !- Schedule Type Limits Name
  ,                                       !- Interpolate to Timestep
  6,                                      !- Hour 1
  0,                                      !- Minute 1
  0.317515,                               !- Value Until Time 1
  8,                                      !- Hour 2
  0,                                      !- Minute 2
  0.384143,                               !- Value Until Time 2
  12,                                     !- Hour 3
  0,                                      !- Minute 3
  0.864322,                               !- Value Until Time 3
  13,                                     !- Hour 4