
OS:Version,
  {63e8e662-432a-404f-816f-62458e9528e8}, !- Handle
  3.4.0;                                  !- Version Identifier

OS:Building,
  {a1e3b4d4-4250-4063-9f7d-059c7f6245d8}, !- Handle
  Building 1,                             !- Name
  ,                                       !- Building Sector Type
  0,                                      !- North Axis {deg}
  ,                                       !- Nominal Floor to Floor Height {m}
  ,                                       !- Space Type Name
  {77a6328c-c91f-454f-a279-0fa56475d003}, !- Default Construction Set Name
  ,                                       !- Default Schedule Set Name
  ,                                       !- Standards Number of Stories
  ,                                       !- Standards Number of Above Ground Stories
  ,                                       !- Standards Template
  MediumOffice;                           !- Standards Building Type

OS:Facility,
  {a6347daf-4c4c-4367-aca8-15de122a56f8}; !- Handle

OS:Site,
  {1e4dd81e-1462-4c34-9e0b-c0a12e0f868c}, !- Handle
  Site 1,                                 !- Name
  ,                                       !- Latitude {deg}
  ,                                       !- Longitude {deg}
  ,                                       !- Time Zone {hr}
  ,                                       !- Elevation {m}
  City;                                   !- Terrain

OS:SimulationControl,
  {0e7f1715-9019-42b2-907f-b07eb4086e4b}, !- Handle
  Yes,                                    !- Do Zone Sizing Calculation
  Yes,                                    !- Do System Sizing Calculation
  Yes,                                    !- Do Plant Sizing Calculation
  No,                                     !- Run Simulation for Sizing Periods
  Yes,                                    !- Run Simulation for Weather File Run Periods
  ,                                       !- Loads Convergence Tolerance Value {W}
  ,                                       !- Temperature Convergence Tolerance Value {deltaC}
  FullInteriorAndExterior;                !- Solar Distribution

OS:Sizing:Parameters,
  {efb47678-df4b-4ead-bfde-d4c101f11159}, !- Handle
  1,                                      !- Heating Sizing Factor
  1;                                      !- Cooling Sizing Factor

OS:Timestep,
  {67301b20-73cc-461d-a3df-07f39bb1a348}, !- Handle
  6;                                      !- Number of Timesteps per Hour

OS:ShadowCalculation,
  {86c629b1-aba1-47d0-a4f6-738a4c534a97}, !- Handle
  PolygonClipping,                        !- Shading Calculation Method
  Periodic,                               !- Shading Calculation Update Frequency Method
  7,                                      !- Shading Calculation Update Frequency
  15000,                                  !- Maximum Figures in Shadow Overlap Calculations
  ,                                       !- Polygon Clipping Algorithm
  512,                                    !- Pixel Counting Resolution
  ,                                       !- Sky Diffuse Modeling Algorithm
  No,                                     !- Output External Shading Calculation Results
  No,                                     !- Disable Self-Shading Within Shading Zone Groups
  No;                                     !- Disable Self-Shading From Shading Zone Groups to Other Zones

OS:HeatBalanceAlgorithm,
  {a510c38f-969d-41cb-a0ea-771cffa081d3}, !- Handle
  ConductionTransferFunction,             !- Algorithm
  200;                                    !- Surface Temperature Upper Limit {C}

OS:RunPeriod,
  {695dcbd9-d827-4d46-8a0a-7f7e2ceff4f4}, !- Handle
  Run Period 1,                           !- Name
  1,                                      !- Begin Month
  1,                                      !- Begin Day of Month
  12,                                     !- End Month
  31,                                     !- End Day of Month
  ,                                       !- Use Weather File Holidays and Special Days
  ,                                       !- Use Weather File Daylight Saving Period
  ,                                       !- Apply Weekend Holiday Rule
  ,                                       !- Use Weather File Rain Indicators
  ,                                       !- Use Weather File Snow Indicators
  ;                                       !- Number of Times Runperiod to be Repeated

OS:LifeCycleCost:Parameters,
  {42975e5e-a3be-420b-b708-265c6577c82c}, !- Handle
  ,                                       !- Analysis Type
  ,                                       !- Discounting Convention
  ,                                       !- Inflation Approach
  ,                                       !- Real Discount Rate
  ,                                       !- Nominal Discount Rate
  ,                                       !- Inflation
  ,                                       !- Base Date Month
  ,                                       !- Base Date Year
  ,                                       !- Service Date Month
  ,                                       !- Service Date Year
  ;                                       !- Length of Study Period in Years

OS:WeatherFile,
  {3c77ca89-5618-4123-9b9f-150d862f6ecc}, !- Handle
  Tucson-Davis Monthan AFB,               !- City
  AZ,                                     !- State Province Region
  USA,                                    !- Country
  TMY3,                                   !- Data Source
  722745,                                 !- WMO Number
  32.17,                                  !- Latitude {deg}
  -110.88,                                !- Longitude {deg}
  -7,                                     !- Time Zone {hr}
  809,                                    !- Elevation {m}
  C:/Users/admin/master/thermal/resources/weather/USA_AZ_Tucson-Davis-Monthan.AFB.722745_TMY3.epw, !- Url
  C53C368B,                               !- Checksum
  ,                                       !- Start Date Actual Year
  Sunday;                                 !- Start Day of Week

OS:Site:WaterMainsTemperature,
  {bbc8de5b-05f1-4fa9-a904-3689ea32d725}, !- Handle
  CorrelationFromWeatherFile;             !- Calculation Method

OS:ClimateZones,
  {e5a39d1f-40d8-4846-b6ba-bd0a5279b013}, !- Handle
  ASHRAE,                                 !- Climate Zone Institution Name 1
  ANSI/ASHRAE Standard 169,               !- Climate Zone Document Name 1
  2006,                                   !- Climate Zone Document Year 1
  2A;                                     !- Climate Zone Value 1

OS:Output:Variable,
  {67b04f4f-525d-40f9-8fd5-89bd8de13e2c}, !- Handle
  Output Variable 1,                      !- Name
  ,                                       !- Key Value
  AFN Zone Infiltration Sensible Heat Gain Energy, !- Variable Name
  Hourly;                                 !- Reporting Frequency

OS:Output:Variable,
  {e4a1a44d-18c3-4faa-8105-ff8737ee7d4a}, !- Handle
  Output Variable 2,                      !- Name
  ,                                       !- Key Value
  AFN Zone Infiltration Sensible Heat Loss Energy, !- Variable Name
  Hourly;                                 !- Reporting Frequency

OS:Output:Variable,
  {880a969d-9376-4d6a-b240-dca23aa59b8b}, !- Handle
  Output Variable 3,                      !- Name
  ,                                       !- Key Value
  AFN Zone Ventilation Sensible Heat Gain Energy, !- Variable Name
  Hourly;                                 !- Reporting Frequency

OS:Output:Variable,
  {e122a385-662e-4a81-9f6e-2a589f05d1f5}, !- Handle
  Output Variable 4,                      !- Name
  ,                                       !- Key Value
  AFN Zone Ventilation Sensible Heat Loss Energy, !- Variable Name
  Hourly;                                 !- Reporting Frequency

OS:Output:Variable,
  {0a4117f1-c642-4dac-8379-24467a42efd9}, !- Handle
  Output Variable 5,                      !- Name
  ,                                       !- Key Value
  Baseboard Electricity Energy,           !- Variable Name
  Hourly;                                 !- Reporting Frequency

OS:Output:Variable,
  {be7e82cc-cb9e-45cf-bda9-57daaa06458c}, !- Handle
  Output Variable 6,                      !- Name
  ,                                       !- Key Value
  Boiler Electricity Energy,              !- Variable Name
  Hourly;                                 !- Reporting Frequency

OS:Output:Variable,
  {05c22608-e115-48de-b3b8-520e99a7fa7c}, !- Handle
  Output Variable 7,                      !- Name
  ,                                       !- Key Value
  Boiler NaturalGas Energy,               !- Variable Name
  Hourly;                                 !- Reporting Frequency

OS:Output:Variable,
  {dd295956-3d6a-40b6-ad19-6c7f0a9e3425}, !- Handle
  Output Variable 8,                      !- Name
  ,                                       !- Key Value
  Chiller Electricity Energy,             !- Variable Name
  Hourly;                                 !- Reporting Frequency

OS:Output:Variable,
  {a41455a8-55e0-4964-98bf-9df78e5fd822}, !- Handle
  Output Variable 9,                      !- Name
  ,                                       !- Key Value
  Chiller Heater System Cooling Electricity Energy, !- Variable Name
  Hourly;                                 !- Reporting Frequency

OS:Output:Variable,
  {f1b233bc-eb83-44fa-a0d1-e19864e976e4}, !- Handle
  Output Variable 10,                     !- Name
  ,                                       !- Key Value
  Chiller Heater System Heating Electricity Energy, !- Variable Name
  Hourly;                                 !- Reporting Frequency

OS:Output:Variable,
  {930910da-c5c3-4b98-82d7-d697cdd45db2}, !- Handle
  Output Variable 11,                     !- Name
  ,                                       !- Key Value
  Cooling Coil Electricity Energy,        !- Variable Name
  Hourly;                                 !- Reporting Frequency

OS:Output:Variable,
  {ae5ba92d-58e3-439c-8e0a-d460e96e433a}, !- Handle
  Output Variable 12,                     !- Name
  ,                                       !- Key Value
  Cooling Coil Water Heating Electricity Energy, !- Variable Name
  Hourly;                                 !- Reporting Frequency

OS:Output:Variable,
  {5cb21448-0156-4df2-8c0b-1efb6bf80153}, !- Handle
  Output Variable 13,                     !- Name
  ,                                       !- Key Value
  Cooling Tower Fan Electricity Energy,   !- Variable Name
  Hourly;                                 !- Reporting Frequency

OS:Output:Variable,
  {cc4ea266-3723-40f5-bde9-34146a06ed05}, !- Handle
  Output Variable 14,                     !- Name
  ,                                       !- Key Value
  District Cooling Chilled Water Energy,  !- Variable Name
  Hourly;                                 !- Reporting Frequency

OS:Output:Variable,
  {785b9a6e-c95e-4810-acf5-7be31e5a21d5}, !- Handle
  Output Variable 15,                     !- Name
  ,                                       !- Key Value
  District Heating Hot Water Energy,      !- Variable Name
  Hourly;                                 !- Reporting Frequency

OS:Output:Variable,
  {ece919bd-5896-434a-9fe1-9587498e8c73}, !- Handle
  Output Variable 16,                     !- Name
  ,                                       !- Key Value
  Evaporative Cooler Electricity Energy,  !- Variable Name
  Hourly;                                 !- Reporting Frequency

OS:Output:Variable,
  {8c7c96cb-e0e4-4578-8cd3-abec2176af7a}, !- Handle
  Output Variable 17,                     !- Name
  ,                                       !- Key Value
  Fan Electricity Energy,                 !- Variable Name
  Hourly;                                 !- Reporting Frequency

OS:Output:Variable,
  {8f720771-4cb6-4b06-9cf4-ca783cf093b6}, !- Handle
  Output Variable 18,                     !- Name
  ,                                       !- Key Value
  Heating Coil Electricity Energy,        !- Variable Name
  Hourly;                                 !- Reporting Frequency

OS:Output:Variable,
  {5cdbf788-c2d6-4bd7-adc4-f43e87e56b99}, !- Handle
  Output Variable 19,                     !- Name
  ,                                       !- Key Value
  Heating Coil NaturalGas Energy,         !- Variable Name
  Hourly;                                 !- Reporting Frequency

OS:Output:Variable,
  {2d46c1ab-e3ff-42dd-89e7-d16d9dbeeac0}, !- Handle
  Output Variable 20,                     !- Name
  ,                                       !- Key Value
  Heating Coil Total Heating Energy,      !- Variable Name
  Hourly;                                 !- Reporting Frequency

OS:Output:Variable,
  {254ac526-7b4c-483a-b432-33c06a73fe7c}, !- Handle
  Output Variable 21,                     !- Name
  ,                                       !- Key Value
  Hot_Water_Loop_Central_Air_Source_Heat_Pump Electricity Consumption, !- Variable Name
  Hourly;                                 !- Reporting Frequency

OS:Output:Variable,
  {a8c83b1c-2184-42ee-a6be-9fa6f54ee279}, !- Handle
  Output Variable 22,                     !- Name
  ,                                       !- Key Value
  Humidifier Electricity Energy,          !- Variable Name
  Hourly;                                 !- Reporting Frequency

OS:Output:Variable,
  {378cfba2-d1e2-4cc5-8efd-921cebba3698}, !- Handle
  Output Variable 23,                     !- Name
  ,                                       !- Key Value
  Pump Electricity Energy,                !- Variable Name
  Hourly;                                 !- Reporting Frequency

OS:Output:Variable,
  {79959f3d-bbe1-49d1-b974-c6f4286c2d1a}, !- Handle
  Output Variable 24,                     !- Name
  ,                                       !- Key Value
  Surface Inside Face Conduction Heat Transfer Energy, !- Variable Name
  Hourly;                                 !- Reporting Frequency

OS:Output:Variable,
  {2cd68222-6472-426e-b0e9-18fa1d04ec14}, !- Handle
  Output Variable 25,                     !- Name
  ,                                       !- Key Value
  Surface Inside Face Temperature,        !- Variable Name
  Hourly;                                 !- Reporting Frequency

OS:Output:Variable,
  {48204885-a23d-46f6-acbc-0a0c4b62e941}, !- Handle
  Output Variable 26,                     !- Name
  ,                                       !- Key Value
  Surface Outside Face Temperature,       !- Variable Name
  Hourly;                                 !- Reporting Frequency

OS:Output:Variable,
  {e5bb09b5-a1b3-4bb9-9481-77fe9cbf32d3}, !- Handle
  Output Variable 27,                     !- Name
  ,                                       !- Key Value
  Surface Window Heat Gain Energy,        !- Variable Name
  Hourly;                                 !- Reporting Frequency

OS:Output:Variable,
  {2b2b488e-b0b7-4862-ac3d-95df073f4ddb}, !- Handle
  Output Variable 28,                     !- Name
  ,                                       !- Key Value
  Surface Window Heat Loss Energy,        !- Variable Name
  Hourly;                                 !- Reporting Frequency

OS:Output:Variable,
  {84753cb4-af81-4eaa-b85c-51d1dc8dbdc7}, !- Handle
  Output Variable 29,                     !- Name
  ,                                       !- Key Value
  VRF Heat Pump Cooling Electricity Energy, !- Variable Name
  Hourly;                                 !- Reporting Frequency

OS:Output:Variable,
  {bd1981d5-1f00-486a-ab11-ddbdd157d51e}, !- Handle
  Output Variable 30,                     !- Name
  ,                                       !- Key Value
  VRF Heat Pump Crankcase Heater Electricity Energy, !- Variable Name
  Hourly;                                 !- Reporting Frequency

OS:Output:Variable,
  {18fcdfb2-b83f-4af4-8adc-45fd2d463954}, !- Handle
  Output Variable 31,                     !- Name
  ,                                       !- Key Value
  VRF Heat Pump Defrost Electricity Energy, !- Variable Name
  Hourly;                                 !- Reporting Frequency

OS:Output:Variable,
  {77e64741-0a49-4850-a69a-fb975abe831c}, !- Handle
  Output Variable 32,                     !- Name
  ,                                       !- Key Value
  VRF Heat Pump Heating Electricity Energy, !- Variable Name
  Hourly;                                 !- Reporting Frequency

OS:Output:Variable,
  {4762fe48-262b-43bf-b465-b018d2fdf09f}, !- Handle
  Output Variable 33,                     !- Name
  ,                                       !- Key Value
  Water Heater Electricity Energy,        !- Variable Name
  Hourly;                                 !- Reporting Frequency

OS:Output:Variable,
  {1d092bef-81d3-4d24-aedb-0f69023e9307}, !- Handle
  Output Variable 34,                     !- Name
  ,                                       !- Key Value
  Water Heater NaturalGas Energy,         !- Variable Name
  Hourly;                                 !- Reporting Frequency

OS:Output:Variable,
  {78abd66c-5515-4f8a-87bc-31169cffc5bb}, !- Handle
  Output Variable 35,                     !- Name
  ,                                       !- Key Value
  Water Use Equipment Heating Energy,     !- Variable Name
  Hourly;                                 !- Reporting Frequency

OS:Output:Variable,
  {6ef8f9b9-ba82-49cc-8f60-249427baa595}, !- Handle
  Output Variable 36,                     !- Name
  ,                                       !- Key Value
  Zone Air Relative Humidity,             !- Variable Name
  Hourly;                                 !- Reporting Frequency

OS:Output:Variable,
  {6761de06-2ac5-4a6c-98f0-05192f9fdd5b}, !- Handle
  Output Variable 37,                     !- Name
  ,                                       !- Key Value
  Zone Electric Equipment Electricity Energy, !- Variable Name
  Hourly;                                 !- Reporting Frequency

OS:Output:Variable,
  {bbd7fda9-e5ea-4981-8fc5-8c71b70b2d04}, !- Handle
  Output Variable 38,                     !- Name
  ,                                       !- Key Value
  Zone Gas Equipment NaturalGas Energy,   !- Variable Name
  Hourly;                                 !- Reporting Frequency

OS:Output:Variable,
  {a5946389-e3e2-4ba4-8bfc-ac1c65823a3e}, !- Handle
  Output Variable 39,                     !- Name
  ,                                       !- Key Value
  Zone Ideal Loads Supply Air Total Cooling Energy, !- Variable Name
  Hourly;                                 !- Reporting Frequency

OS:Output:Variable,
  {44ae29ac-f243-4cb9-9424-6847953ada3d}, !- Handle
  Output Variable 40,                     !- Name
  ,                                       !- Key Value
  Zone Ideal Loads Supply Air Total Heating Energy, !- Variable Name
  Hourly;                                 !- Reporting Frequency

OS:Output:Variable,
  {8ea942d1-0546-4318-98d6-c20e08167322}, !- Handle
  Output Variable 41,                     !- Name
  ,                                       !- Key Value
  Zone Ideal Loads Zone Total Cooling Energy, !- Variable Name
  Hourly;                                 !- Reporting Frequency

OS:Output:Variable,
  {dccdae4f-d2d5-49a6-a6dc-b038e1641364}, !- Handle
  Output Variable 42,                     !- Name
  ,                                       !- Key Value
  Zone Ideal Loads Zone Total Heating Energy, !- Variable Name
  Hourly;                                 !- Reporting Frequency

OS:Output:Variable,
  {12b751ba-32cb-4d3f-b93c-28ea5c58e67d}, !- Handle
  Output Variable 43,                     !- Name
  ,                                       !- Key Value
  Zone Infiltration Total Heat Gain Energy, !- Variable Name
  Hourly;                                 !- Reporting Frequency

OS:Output:Variable,
  {08f23b28-2bae-45e0-940e-d23e69bec605}, !- Handle
  Output Variable 44,                     !- Name
  ,                                       !- Key Value
  Zone Infiltration Total Heat Loss Energy, !- Variable Name
  Hourly;                                 !- Reporting Frequency

OS:Output:Variable,
  {33178f01-dac2-4dfe-abdc-365e45639112}, !- Handle
  Output Variable 45,                     !- Name
  ,                                       !- Key Value
  Zone Lights Electricity Energy,         !- Variable Name
  Hourly;                                 !- Reporting Frequency

OS:Output:Variable,
  {949692d3-83ef-467b-8007-593eca77dcc6}, !- Handle
  Output Variable 46,                     !- Name
  ,                                       !- Key Value
  Zone Mean Air Temperature,              !- Variable Name
  Hourly;                                 !- Reporting Frequency

OS:Output:Variable,
  {dd4f6aac-1fc9-4f54-88b7-599c01bea9af}, !- Handle
  Output Variable 47,                     !- Name
  ,                                       !- Key Value
  Zone Mean Radiant Temperature,          !- Variable Name
  Hourly;                                 !- Reporting Frequency

OS:Output:Variable,
  {e4a0e093-bbb3-43b0-b7ca-c2da968148ea}, !- Handle
  Output Variable 48,                     !- Name
  ,                                       !- Key Value
  Zone Operative Temperature,             !- Variable Name
  Hourly;                                 !- Reporting Frequency

OS:Output:Variable,
  {0bb7c0ff-8068-43d3-8b01-d7fe1f5f269d}, !- Handle
  Output Variable 49,                     !- Name
  ,                                       !- Key Value
  Zone Other Equipment Lost Heat Energy,  !- Variable Name
  Hourly;                                 !- Reporting Frequency

OS:Output:Variable,
  {c147ccd8-f10b-4411-8d99-9c9b57c4bf3d}, !- Handle
  Output Variable 50,                     !- Name
  ,                                       !- Key Value
  Zone Other Equipment Total Heating Energy, !- Variable Name
  Hourly;                                 !- Reporting Frequency

OS:Output:Variable,
  {7989c00c-bf10-4acd-9008-c5688789d18b}, !- Handle
  Output Variable 51,                     !- Name
  ,                                       !- Key Value
  Zone People Total Heating Energy,       !- Variable Name
  Hourly;                                 !- Reporting Frequency

OS:Output:Variable,
  {143be691-6c51-4bfe-9d8f-bbb42eee9875}, !- Handle
  Output Variable 52,                     !- Name
  ,                                       !- Key Value
  Zone VRF Air Terminal Cooling Electricity Energy, !- Variable Name
  Hourly;                                 !- Reporting Frequency

OS:Output:Variable,
  {66a07f3f-ec85-42b2-a75d-f22917f8dcd6}, !- Handle
  Output Variable 53,                     !- Name
  ,                                       !- Key Value
  Zone VRF Air Terminal Heating Electricity Energy, !- Variable Name
  Hourly;                                 !- Reporting Frequency

OS:Output:Variable,
  {aa9473ed-a96b-4c6e-8005-94c95f14843d}, !- Handle
  Output Variable 54,                     !- Name
  ,                                       !- Key Value
  Zone Ventilation Fan Electricity Energy, !- Variable Name
  Hourly;                                 !- Reporting Frequency

OS:Output:Variable,
  {d9f4e048-e417-4750-8448-df272f6e5b0d}, !- Handle
  Output Variable 55,                     !- Name
  ,                                       !- Key Value
  Zone Ventilation Total Heat Gain Energy, !- Variable Name
  Hourly;                                 !- Reporting Frequency

OS:Output:Variable,
  {f6c6131f-5672-48d2-8510-668cefee2048}, !- Handle
  Output Variable 56,                     !- Name
  ,                                       !- Key Value
  Zone Ventilation Total Heat Loss Energy, !- Variable Name
  Hourly;                                 !- Reporting Frequency

OS:Output:Variable,
  {fccdb84b-cc30-498e-8ee1-7538101fd595}, !- Handle
  Output Variable 57,                     !- Name
  ,                                       !- Key Value
  Zone Windows Total Transmitted Solar Radiation Energy, !- Variable Name
  Hourly;                                 !- Reporting Frequency

OS:Output:Table:SummaryReports,
  {9ffe92fa-e88f-4415-9893-5f280d73627f}, !- Handle
  AllSummary;                             !- Report Name 1

OS:YearDescription,
  {2195c91d-9ed7-4517-8174-c54c87fa13c2}, !- Handle
  ,                                       !- Calendar Year
  Sunday,                                 !- Day of Week for Start Day
  No;                                     !- Is Leap Year

OS:ScheduleTypeLimits,
  {449d0241-6d40-4a9b-bb84-0c607fc094f7}, !- Handle
  Temperature,                            !- Name
  -273.15,                                !- Lower Limit Value
  ,                                       !- Upper Limit Value
  Continuous,                             !- Numeric Type
  Temperature;                            !- Unit Type

OS:ScheduleTypeLimits,
  {0cf0b364-c46d-4f2c-a999-e9fe57fc1ca1}, !- Handle
  Fractional,                             !- Name
  0,                                      !- Lower Limit Value
  1,                                      !- Upper Limit Value
  Continuous,                             !- Numeric Type
  Dimensionless;                          !- Unit Type

OS:Schedule:Ruleset,
  {12b14c98-a080-436f-b660-ff67481722a2}, !- Handle
  Courthouse BLDG_EQUIP_SCH,              !- Name
  {0cf0b364-c46d-4f2c-a999-e9fe57fc1ca1}, !- Schedule Type Limits Name
  {f38d95bb-5bbf-4f5b-867b-dba3f3869992}, !- Default Day Schedule Name
  {2a68b65f-82e7-4290-a234-ad2d80278b92}, !- Summer Design Day Schedule Name
  {b70b604f-ef3c-41dd-8ec3-2ad590d39df9}; !- Winter Design Day Schedule Name

OS:Schedule:Day,
  {f38d95bb-5bbf-4f5b-867b-dba3f3869992}, !- Handle
  Courthouse BLDG_EQUIP_SCH_Sat,          !- Name
  {0cf0b364-c46d-4f2c-a999-e9fe57fc1ca1}, !- Schedule Type Limits Name
  ,                                       !- Interpolate to Timestep
  6,                                      !- Hour 1
  0,                                      !- Minute 1
  0.238136,                               !- Value Until Time 1
  8,                                      !- Hour 2
  0,                                      !- Minute 2
  0.384143,                               !- Value Until Time 2
  12,                                     !- Hour 3
  0,                                      !- Minute 3
  0.480179,                               !- Value Until Time 3
  17,                                     !- Hour 4
  0,                                      !- Minute 4
  0.336125,                               !- Value Until Time 4
  19,                                     !- Hour 5
  0,                                      !- Minute 5
  0.288107,                               !- Value Until Time 5
  24,                                     !- Hour 6
  0,                                      !- Minute 6
  0.238136;                               !- Value Until Time 6

OS:Schedule:Day,
  {5ace2c63-a839-4366-b7e0-dd2be22e415f}, !- Handle
  Courthouse BLDG_EQUIP_SCH_SmrDsn,       !- Name
  {0cf0b364-c46d-4f2c-a999-e9fe57fc1ca1}, !- Schedule Type Limits Name
  ,                                       !- Interpolate to Timestep
  24,                                     !- Hour 1
  0,                                      !- Minute 1
  1;                                      !- Value Until Time 1

OS:Schedule:Day,
  {4de76736-27fa-4603-b5c9-68d0716bc70f}, !- Handle
  Courthouse BLDG_EQUIP_SCH_WntrDsn,      !- Name
  {0cf0b364-c46d-4f2c-a999-e9fe57fc1ca1}, !- Schedule Type Limits Name
  ,                                       !- Interpolate to Timestep
  24,                                     !- Hour 1
  0,                                      !- Minute 1
  0;                                      !- Value Until Time 1

OS:Schedule:Day,
  {23798eae-2954-492e-b208-5b71c1d512db}, !- Handle
  Courthouse BLDG_EQUIP_SCH_Sun,          !- Name
  {0cf0b364-c46d-4f2c-a999-e9fe57fc1ca1}, !- Schedule Type Limits Name
  ,                                       !- Interpolate to Timestep
  6,                                      !- Hour 1
  0,                                      !- Minute 1
  0.238136,                               !- Value Until Time 1
  18,                                     !- Hour 2
  0,                                      !- Minute 2
  0.288107,                               !- Value Until Time 2
  24,                                     !- Hour 3
  0,                                      !- Minute 3
  0.238136;                               !- Value Until Time 3

OS:Schedule:Day,
  {3649ef55-4263-43e2-9b59-a02730383170}, !- Handle
  Courthouse BLDG_EQUIP_SCH_Wkdy,         !- Name
  {0cf0b364-c46d-4f2c-a999-e9fe57fc1ca1}, !- Schedule Type Limits Name
  ,                                       !- Interpolate to Timestep
  6,                                      !- Hour 1
  0,                                      !- Minute 1
  0.317515,                               !- Value Until Time 1
  8,                                      !- Hour 2
  0,                                      !- Minute 2
  0.384143,                               !- Value Until Time 2
  12,                                     !- Hour 3
  0,                                      !- Minute 3
  0.864322,                               !- Value Until Time 3
  13,                                     !- Hour 4