
OS:Version,
  {4dd4f81d-4fd8-45ad-a9fb-4c6914322439}, !- Handle
  3.6.1;                                  !- Version Identifier

OS:Building,
  {bf364bc7-0ade-422a-ae12-e268a4884703}, !- Handle
  Building 1,                             !- Name
  ,                                       !- Building Sector Type
  0,                                      !- North Axis {deg}
  ,                                       !- Nominal Floor to Floor Height {m}
  ,                                       !- Space Type Name
  {7a593bb2-bef6-4f69-bc77-06b68e1a5690}, !- Default Construction Set Name
  ,                                       !- Default Schedule Set Name
  ,                                       !- Standards Number of Stories
  ,                                       !- Standards Number of Above Ground Stories
  ,                                       !- Standards Template
  MediumOffice;                           !- Standards Building Type

OS:Facility,
  {d8dee0f9-432f-4e80-84c8-ec78aea37c8b}; !- Handle

OS:Site,
  {bc850514-df1e-4063-bd17-95f17dda60af}, !- Handle
  Site 1,                                 !- Name
  ,                                       !- Latitude {deg}
  ,                                       !- Longitude {deg}
  ,                                       !- Time Zone {hr}
  ,                                       !- Elevation {m}
  City;                                   !- Terrain

OS:SimulationControl,
  {9602a7e0-2f32-49f3-9a2e-2e565189b981}, !- Handle
  Yes,                                    !- Do Zone Sizing Calculation
  Yes,                                    !- Do System Sizing Calculation
  Yes,                                    !- Do Plant Sizing Calculation
  No,                                     !- Run Simulation for Sizing Periods
  Yes,                                    !- Run Simulation for Weather File Run Periods
  ,                                       !- Loads Convergence Tolerance Value {W}
  ,                                       !- Temperature Convergence Tolerance Value {deltaC}
  FullInteriorAndExterior;                !- Solar Distribution

OS:Sizing:Parameters,
  {ebc23299-f090-43ef-95cd-760197f21820}, !- Handle
  1,                                      !- Heating Sizing Factor
  1;                                      !- Cooling Sizing Factor

OS:Timestep,
  {863acf4b-0036-4b30-85f3-0232cff02607}, !- Handle
  6;                                      !- Number of Timesteps per Hour

OS:ShadowCalculation,
  {672cfbe1-dac1-4be4-9980-d068109cfe24}, !- Handle
  PolygonClipping,                        !- Shading Calculation Method
  Periodic,                               !- Shading Calculation Update Frequency Method
  30,                                     !- Shading Calculation Update Frequency
  15000,                                  !- Maximum Figures in Shadow Overlap Calculations
  ,                                       !- Polygon Clipping Algorithm
  512,                                    !- Pixel Counting Resolution
  ,                                       !- Sky Diffuse Modeling Algorithm
  No,                                     !- Output External Shading Calculation Results
  No,                                     !- Disable Self-Shading Within Shading Zone Groups
  No;                                     !- Disable Self-Shading From Shading Zone Groups to Other Zones

OS:HeatBalanceAlgorithm,
  {2f8905c6-481e-4e06-a1da-90718612ec1a}, !- Handle
  ConductionTransferFunction,             !- Algorithm
  200;                                    !- Surface Temperature Upper Limit {C}

OS:RunPeriod,
  {4a4e228d-8fba-4f9a-b167-b2f1a712f864}, !- Handle
  Run Period 1,                           !- Name
  1,                                      !- Begin Month
  1,                                      !- Begin Day of Month
  3,                                      !- End Month
  31,                                     !- End Day of Month
  ,                                       !- Use Weather File Holidays and Special Days
  ,                                       !- Use Weather File Daylight Saving Period
  ,                                       !- Apply Weekend Holiday Rule
  ,                                       !- Use Weather File Rain Indicators
  ,                                       !- Use Weather File Snow Indicators
  ;                                       !- Number of Times Runperiod to be Repeated

OS:LifeCycleCost:Parameters,
  {8a0588e6-1792-4ec3-a12e-ba3446efcfb7}, !- Handle
  ,                                       !- Analysis Type
  ,                                       !- Discounting Convention
  ,                                       !- Inflation Approach
  ,                                       !- Real Discount Rate
  ,                                       !- Nominal Discount Rate
  ,                                       !- Inflation
  ,                                       !- Base Date Month
  ,                                       !- Base Date Year
  ,                                       !- Service Date Month
  ,                                       !- Service Date Year
  ;                                       !- Length of Study Period in Years

OS:WeatherFile,
  {08928d63-9058-41c0-a503-46f0e00f0206}, !- Handle
  Honolulu Intl Arpt,                     !- City
  HI,                                     !- State Province Region
  USA,                                    !- Country
  TMY3,                                   !- Data Source
  911820,                                 !- WMO Number
  21.32,                                  !- Latitude {deg}
  -157.93,                                !- Longitude {deg}
  -10,                                    !- Time Zone {hr}
  2,                                      !- Elevation {m}
  C:/Users/admin/masterwin/thermal/epw/USA_HI_Honolulu.Intl.AP.911820_TMY3/USA_HI_Honolulu.Intl.AP.911820_TMY3.epw, !- Url
  FAFD839F,                               !- Checksum
  ,                                       !- Start Date Actual Year
  Sunday;                                 !- Start Day of Week

OS:SizingPeriod:DesignDay,
  {fb8a70e2-f91c-4a9a-9d1c-99b5ea79216b}, !- Handle
  Honolulu Intl Arpt Ann Htg 99.6% Condns DB, !- Name
  16.2,                                   !- Maximum Dry-Bulb Temperature {C}
  0,                                      !- Daily Dry-Bulb Temperature Range {deltaC}
  101301,                                 !- Barometric Pressure {Pa}
  1.9,                                    !- Wind Speed {m/s}
  320,                                    !- Wind Direction {deg}
  0,                                      !- Sky Clearness
  ,                                       !- Rain Indicator
  ,                                       !- Snow Indicator
  21,                                     !- Day of Month
  2,                                      !- Month
  WinterDesignDay,                        !- Day Type
  ,                                       !- Daylight Saving Time Indicator
  Wetbulb,                                !- Humidity Condition Type
  ,                                       !- Humidity Condition Day Schedule Name
  16.2,                                   !- Wetbulb or DewPoint at Maximum Dry-Bulb {C}
  ,                                       !- Humidity Ratio at Maximum Dry-Bulb {kgWater/kgDryAir}
  ,                                       !- Enthalpy at Maximum Dry-Bulb {J/kg}
  ,                                       !- Dry-Bulb Temperature Range Modifier Type
  ,                                       !- Dry-Bulb Temperature Range Modifier Day Schedule Name
  ASHRAEClearSky;                         !- Solar Model Indicator

OS:SizingPeriod:DesignDay,
  {585d4eb6-c638-4ca2-8093-e354e2dbc45b}, !- Handle
  Honolulu Intl Arpt Ann Htg 99% Condns DB, !- Name
  17.4,                                   !- Maximum Dry-Bulb Temperature {C}
  0,                                      !- Daily Dry-Bulb Temperature Range {deltaC}
  101301,                                 !- Barometric Pressure {Pa}
  1.9,                                    !- Wind Speed {m/s}
  320,                                    !- Wind Direction {deg}
  0,                                      !- Sky Clearness
  ,                                       !- Rain Indicator
  ,                                       !- Snow Indicator
  21,                                     !- Day of Month
  2,                                      !- Month
  WinterDesignDay,                        !- Day Type
  ,                                       !- Daylight Saving Time Indicator
  Wetbulb,                                !- Humidity Condition Type
  ,                                       !- Humidity Condition Day Schedule Name
  17.4,                                   !- Wetbulb or DewPoint at Maximum Dry-Bulb {C}
  ,                                       !- Humidity Ratio at Maximum Dry-Bulb {kgWater/kgDryAir}
  ,                                       !- Enthalpy at Maximum Dry-Bulb {J/kg}
  ,                                       !- Dry-Bulb Temperature Range Modifier Type
  ,                                       !- Dry-Bulb Temperature Range Modifier Day Schedule Name
  ASHRAEClearSky;                         !- Solar Model Indicator

OS:SizingPeriod:DesignDay,
  {06c8a4b2-536b-4a8f-8c1b-6efe541560b5}, !- Handle
  Honolulu Intl Arpt Ann Hum_n 99.6% Condns DP=>MCDB, !- Name
  20.8,                                   !- Maximum Dry-Bulb Temperature {C}
  0,                                      !- Daily Dry-Bulb Temperature Range {deltaC}
  101301,                                 !- Barometric Pressure {Pa}
  1.9,                                    !- Wind Speed {m/s}
  320,                                    !- Wind Direction {deg}
  0,                                      !- Sky Clearness
  ,                                       !- Rain Indicator
  ,                                       !- Snow Indicator
  21,                                     !- Day of Month
  2,                                      !- Month
  WinterDesignDay,                        !- Day Type
  ,                                       !- Daylight Saving Time Indicator
  Dewpoint,                               !- Humidity Condition Type
  ,                                       !- Humidity Condition Day Schedule Name
  10.8,                                   !- Wetbulb or DewPoint at Maximum Dry-Bulb {C}
  ,                                       !- Humidity Ratio at Maximum Dry-Bulb {kgWater/kgDryAir}
  ,                                       !- Enthalpy at Maximum Dry-Bulb {J/kg}
  ,                                       !- Dry-Bulb Temperature Range Modifier Type
  ,                                       !- Dry-Bulb Temperature Range Modifier Day Schedule Name
  ASHRAEClearSky;                         !- Solar Model Indicator

OS:SizingPeriod:DesignDay,
  {fc3a7fd4-2799-464c-b4c1-36bb8c3c0f52}, !- Handle
  Honolulu Intl Arpt Ann Hum_n 99% Condns DP=>MCDB, !- Name
  21,                                     !- Maximum Dry-Bulb Temperature {C}
  0,                                      !- Daily Dry-Bulb Temperature Range {deltaC}
  101301,                                 !- Barometric Pressure {Pa}
  1.9,                                    !- Wind Speed {m/s}
  320,                                    !- Wind Direction {deg}
  0,                                      !- Sky Clearness
  ,                                       !- Rain Indicator
  ,                                       !- Snow Indicator
  21,                                     !- Day of Month
  2,                                      !- Month
  WinterDesignDay,                        !- Day Type
  ,                                       !- Daylight Saving Time Indicator
  Dewpoint,                               !- Humidity Condition Type
  ,                                       !- Humidity Condition Day Schedule Name
  11.9,                                   !- Wetbulb or DewPoint at Maximum Dry-Bulb {C}
  ,                                       !- Humidity Ratio at Maximum Dry-Bulb {kgWater/kgDryAir}
  ,                                       !- Enthalpy at Maximum Dry-Bulb {J/kg}
  ,                                       !- Dry-Bulb Temperature Range Modifier Type
  ,                                       !- Dry-Bulb Temperature Range Modifier Day Schedule Name
  ASHRAEClearSky;                         !- Solar Model Indicator

OS:SizingPeriod:DesignDay,
  {0de7eb88-461a-4d6b-8ec5-465750bfa804}, !- Handle
  Honolulu Intl Arpt Ann Htg Wind 99.6% Condns WS=>MCDB, !- Name
  24.3,                                   !- Maximum Dry-Bulb Temperature {C}
  0,                                      !- Daily Dry-Bulb Temperature Range {deltaC}
  101301,                                 !- Barometric Pressure {Pa}
  10.9,                                   !- Wind Speed {m/s}
  320,                                    !- Wind Direction {deg}
  0,                                      !- Sky Clearness
  ,                                       !- Rain Indicator
  ,                                       !- Snow Indicator
  21,                                     !- Day of Month
  2,                                      !- Month
  WinterDesignDay,                        !- Day Type
  ,                                       !- Daylight Saving Time Indicator
  Wetbulb,                                !- Humidity Condition Type
  ,                                       !- Humidity Condition Day Schedule Name
  24.3,                                   !- Wetbulb or DewPoint at Maximum Dry-Bulb {C}
  ,                                       !- Humidity Ratio at Maximum Dry-Bulb {kgWater/kgDryAir}
  ,                                       !- Enthalpy at Maximum Dry-Bulb {J/kg}
  ,                                       !- Dry-Bulb Temperature Range Modifier Type
  ,                                       !- Dry-Bulb Temperature Range Modifier Day Schedule Name
  ASHRAEClearSky;                         !- Solar Model Indicator

OS:SizingPeriod:DesignDay,
  {8f802270-35ed-4b65-a215-4cf07894948e}, !- Handle
  Honolulu Intl Arpt Ann Htg Wind 99% Condns WS=>MCDB, !- Name
  24.1,                                   !- Maximum Dry-Bulb Temperature {C}
  0,                                      !- Daily Dry-Bulb Temperature Range {deltaC}
  101301,                                 !- Barometric Pressure {Pa}
  9.9,                                    !- Wind Speed {m/s}
  320,                                    !- Wind Direction {deg}
  0,                                      !- Sky Clearness
  ,                                       !- Rain Indicator
  ,                                       !- Snow Indicator
  21,                                     !- Day of Month
  2,                                      !- Month
  WinterDesignDay,                        !- Day Type
  ,                                       !- Daylight Saving Time Indicator
  Wetbulb,                                !- Humidity Condition Type
  ,                                       !- Humidity Condition Day Schedule Name
  24.1,                                   !- Wetbulb or DewPoint at Maximum Dry-Bulb {C}
  ,                                       !- Humidity Ratio at Maximum Dry-Bulb {kgWater/kgDryAir}
  ,                                       !- Enthalpy at Maximum Dry-Bulb {J/kg}
  ,                                       !- Dry-Bulb Temperature Range Modifier Type
  ,                                       !- Dry-Bulb Temperature Range Modifier Day Schedule Name
  ASHRAEClearSky;                         !- Solar Model Indicator

OS:SizingPeriod:DesignDay,
  {f301d835-bf54-4ab3-872a-248f3361b362}, !- Handle
  Honolulu Intl Arpt Ann Clg .4% Condns DB=>MWB, !- Name
  32.2,                                   !- Maximum Dry-Bulb Temperature {C}
  7.1,                                    !- Daily Dry-Bulb Temperature Range {deltaC}
  101301,                                 !- Barometric Pressure {Pa}
  6.7,                                    !- Wind Speed {m/s}
  60,                                     !- Wind Direction {deg}
  ,                                       !- Sky Clearness
  ,                                       !- Rain Indicator
  ,                                       !- Snow Indicator
  21,                                     !- Day of Month
  8,                                      !- Month
  SummerDesignDay,                        !- Day Type
  ,                                       !- Daylight Saving Time Indicator
  Wetbulb,                                !- Humidity Condition Type
  ,                                       !- Humidity Condition Day Schedule Name
  23.3,                                   !- Wetbulb or DewPoint at Maximum Dry-Bulb {C}
  ,                                       !- Humidity Ratio at Maximum Dry-Bulb {kgWater/kgDryAir}
  ,                                       !- Enthalpy at Maximum Dry-Bulb {J/kg}
  ,                                       !- Dry-Bulb Temperature Range Modifier Type
  ,                                       !- Dry-Bulb Temperature Range Modifier Day Schedule Name
  ASHRAETau,                              !- Solar Model Indicator
  ,                                       !- Beam Solar Day Schedule Name
  ,                                       !- Diffuse Solar Day Schedule Name
  0.382,                                  !- ASHRAE Clear Sky Optical Depth for Beam Irradiance {dimensionless}
  2.521;                                  !- ASHRAE Clear Sky Optical Depth for Diffuse Irradiance {dimensionless}

OS:SizingPeriod:DesignDay,
  {b197e7ac-a1bd-468c-9192-9a5b382df7b5}, !- Handle
  Honolulu Intl Arpt Ann Clg 1% Condns DB=>MWB, !- Name
  31.7,                                   !- Maximum Dry-Bulb Temperature {C}
  7.1,                                    !- Daily Dry-Bulb Temperature Range {deltaC}
  101301,                                 !- Barometric Pressure {Pa}
  6.7,                                    !- Wind Speed {m/s}
  60,                                     !- Wind Direction {deg}
  ,                                       !- Sky Clearness
  ,                                       !- Rain Indicator
  ,                                       !- Snow Indicator
  21,                                     !- Day of Month
  8,                                      !- Month
  SummerDesignDay,                        !- Day Type
  ,                                       !- Daylight Saving Time Indicator
  Wetbulb,                                !- Humidity Condition Type
  ,                                       !- Humidity Condition Day Schedule Name
  23.1,                                   !- Wetbulb or DewPoint at Maximum Dry-Bulb {C}
  ,                                       !- Humidity Ratio at Maximum Dry-Bulb {kgWater/kgDryAir}
  ,                                       !- Enthalpy at Maximum Dry-Bulb {J/kg}
  ,                                       !- Dry-Bulb Temperature Range Modifier Type
  ,                                       !- Dry-Bulb Temperature Range Modifier Day Schedule Name
  ASHRAETau,                              !- Solar Model Indicator
  ,                                       !- Beam Solar Day Schedule Name
  ,                                       !- Diffuse Solar Day Schedule Name
  0.382,                                  !- ASHRAE Clear Sky Optical Depth for Beam Irradiance {dimensionless}
  2.521;                                  !- ASHRAE Clear Sky Optical Depth for Diffuse Irradiance {dimensionless}

OS:SizingPeriod:DesignDay,
  {408c39b6-0bab-463e-98a5-2e35b112bb13}, !- Handle
  Honolulu Intl Arpt Ann Clg 2% Condns DB=>MWB, !- Name
  31.2,                                   !- Maximum Dry-Bulb Temperature {C}
  7.1,                                    !- Daily Dry-Bulb Temperature Range {deltaC}
  101301,                                 !- Barometric Pressure {Pa}
  6.7,                                    !- Wind Speed {m/s}
  60,                                     !- Wind Direction {deg}
  ,                                       !- Sky Clearness
  ,                                       !- Rain Indicator
  ,                                       !- Snow Indicator
  21,                                     !- Day of Month
  8,                                      !- Month
  SummerDesignDay,                        !- Day Type
  ,                                       !- Daylight Saving Time Indicator
  Wetbulb,                                !- Humidity Condition Type
  ,                                       !- Humidity Condition Day Schedule Name
  23,                                     !- Wetbulb or DewPoint at Maximum Dry-Bulb {C}
  ,                                       !- Humidity Ratio at Maximum Dry-Bulb {kgWater/kgDryAir}
  ,                                       !- Enthalpy at Maximum Dry-Bulb {J/kg}
  ,                                       !- Dry-Bulb Temperature Range Modifier Type
  ,                                       !- Dry-Bulb Temperature Range Modifier Day Schedule Name
  ASHRAETau,                              !- Solar Model Indicator
  ,                                       !- Beam Solar Day Schedule Name
  ,                                       !- Diffuse Solar Day Schedule Name
  0.382,                                  !- ASHRAE Clear Sky Optical Depth for Beam Irradiance {dimensionless}
  2.521;                                  !- ASHRAE Clear Sky Optical Depth for Diffuse Irradiance {dimensionless}

OS:SizingPeriod:DesignDay,
  {8be28340-07a8-4523-9a9b-25a845d153fc}, !- Handle
  Honolulu Intl Arpt Ann Clg .4% Condns WB=>MDB, !- Name
  29.3,                                   !- Maximum Dry-Bulb Temperature {C}
  7.1,                                    !- Daily Dry-Bulb Temperature Range {deltaC}
  101301,                                 !- Barometric Pressure {Pa}
  6.7,                                    !- Wind Speed {m/s}
  60,                                     !- Wind Direction {deg}
  ,                                       !- Sky Clearness
  ,                                       !- Rain Indicator
  ,                                       !- Snow Indicator
  21,                                     !- Day of Month
  8,                                      !- Month
  SummerDesignDay,                        !- Day Type
  ,                                       !- Daylight Saving Time Indicator
  Wetbulb,                                !- Humidity Condition Type
  ,                                       !- Humidity Condition Day Schedule Name
  25.1,                                   !- Wetbulb or DewPoint at Maximum Dry-Bulb {C}
  ,                                       !- Humidity Ratio at Maximum Dry-Bulb {kgWater/kgDryAir}
  ,                                       !- Enthalpy at Maximum Dry-Bulb {J/kg}
  ,                                       !- Dry-Bulb Temperature Range Modifier Type
  ,                                       !- Dry-Bulb Temperature Range Modifier Day Schedule Name
  ASHRAETau,                              !- Solar Model Indicator
  ,                                       !- Beam Solar Day Schedule Name
  ,                                       !- Diffuse Solar Day Schedule Name
  0.382,                                  !- ASHRAE Clear Sky Optical Depth for Beam Irradiance {dimensionless}
  2.521;                                  !- ASHRAE Clear Sky Optical Depth for Diffuse Irradiance {dimensionless}

OS:SizingPeriod:DesignDay,
  {fc43b40c-6007-4d44-8319-b91589671077}, !- Handle
  Honolulu Intl Arpt Ann Clg 1% Condns WB=>MDB, !- Name
  29,                                     !- Maximum Dry-Bulb Temperature {C}
  7.1,                                    !- Daily Dry-Bulb Temperature Range {deltaC}
  101301,                                 !- Barometric Pressure {Pa}
  6.7,                                    !- Wind Speed {m/s}
  60,                                     !- Wind Direction {deg}
  ,                                       !- Sky Clearness
  ,                                       !- Rain Indicator
  ,                                       !- Snow Indicator
  21,                                     !- Day of Month
  8,                                      !- Month
  SummerDesignDay,                        !- Day Type
  ,                                       !- Daylight Saving Time Indicator
  Wetbulb,                                !- Humidity Condition Type
  ,                                       !- Humidity Condition Day Schedule Name
  24.6,                                   !- Wetbulb or DewPoint at Maximum Dry-Bulb {C}
  ,                                       !- Humidity Ratio at Maximum Dry-Bulb {kgWater/kgDryAir}
  ,                                       !- Enthalpy at Maximum Dry-Bulb {J/kg}
  ,                                       !- Dry-Bulb Temperature Range Modifier Type
  ,                                       !- Dry-Bulb Temperature Range Modifier Day Schedule Name
  ASHRAETau,                              !- Solar Model Indicator
  ,                                       !- Beam Solar Day Schedule Name
  ,                                       !- Diffuse Solar Day Schedule Name
  0.382,                                  !- ASHRAE Clear Sky Optical Depth for Beam Irradiance {dimensionless}
  2.521;                                  !- ASHRAE Clear Sky Optical Depth for Diffuse Irradiance {dimensionless}

OS:SizingPeriod:DesignDay,
  {488ae47c-84aa-4ba1-8922-3e5834a3e354}, !- Handle
  Honolulu Intl Arpt Ann Clg 2% Condns WB=>MDB, !- Name
  28.7,                                   !- Maximum Dry-Bulb Temperature {C}
  7.1,                                    !- Daily Dry-Bulb Temperature Range {deltaC}
  101301,                                 !- Barometric Pressure {Pa}
  6.7,                                    !- Wind Speed {m/s}
  60,                                     !- Wind Direction {deg}
  ,                                       !- Sky Clearness
  ,                                       !- Rain Indicator
  ,                                       !- Snow Indicator
  21,                                     !- Day of Month
  8,                                      !- Month
  SummerDesignDay,                        !- Day Type
  ,                                       !- Daylight Saving Time Indicator
  Wetbulb,                                !- Humidity Condition Type
  ,                                       !- Humidity Condition Day Schedule Name
  24.2,                                   !- Wetbulb or DewPoint at Maximum Dry-Bulb {C}
  ,                                       !- Humidity Ratio at Maximum Dry-Bulb {kgWater/kgDryAir}
  ,                                       !- Enthalpy at Maximum Dry-Bulb {J/kg}
  ,                                       !- Dry-Bulb Temperature Range Modifier Type
  ,                                       !- Dry-Bulb Temperature Range Modifier Day Schedule Name
  ASHRAETau,                              !- Solar Model Indicator
  ,                                       !- Beam Solar Day Schedule Name
  ,                                       !- Diffuse Solar Day Schedule Name
  0.382,                                  !- ASHRAE Clear Sky Optical Depth for Beam Irradiance {dimensionless}
  2.521;                                  !- ASHRAE Clear Sky Optical Depth for Diffuse Irradiance {dimensionless}

OS:SizingPeriod:DesignDay,
  {5e538add-3983-405f-b1ba-4446fe277379}, !- Handle
  Honolulu Intl Arpt Ann Clg .4% Condns DP=>MDB, !- Name
  27.4,                                   !- Maximum Dry-Bulb Temperature {C}
  7.1,                                    !- Daily Dry-Bulb Temperature Range {deltaC}
  101301,                                 !- Barometric Pressure {Pa}
  6.7,                                    !- Wind Speed {m/s}
  60,                                     !- Wind Direction {deg}
  ,                                       !- Sky Clearness
  ,                                       !- Rain Indicator
  ,                                       !- Snow Indicator
  21,                                     !- Day of Month
  8,                                      !- Month
  SummerDesignDay,                        !- Day Type
  ,                                       !- Daylight Saving Time Indicator
  Dewpoint,                               !- Humidity Condition Type
  ,                                       !- Humidity Condition Day Schedule Name
  23.9,                                   !- Wetbulb or DewPoint at Maximum Dry-Bulb {C}
  ,                                       !- Humidity Ratio at Maximum Dry-Bulb {kgWater/kgDryAir}
  ,                                       !- Enthalpy at Maximum Dry-Bulb {J/kg}
  ,                                       !- Dry-Bulb Temperature Range Modifier Type
  ,                                       !- Dry-Bulb Temperature Range Modifier Day Schedule Name
  ASHRAETau,                              !- Solar Model Indicator
  ,                                       !- Beam Solar Day Schedule Name
  ,                                       !- Diffuse Solar Day Schedule Name
  0.382,                                  !- ASHRAE Clear Sky Optical Depth for Beam Irradiance {dimensionless}
  2.521;                                  !- ASHRAE Clear Sky Optical Depth for Diffuse Irradiance {dimensionless}

OS:SizingPeriod:DesignDay,
  {ce19e912-a0ff-4e6d-96ec-1297c56aec83}, !- Handle
  Honolulu Intl Arpt Ann Clg 1% Condns DP=>MDB, !- Name
  27,                                     !- Maximum Dry-Bulb Temperature {C}
  7.1,                                    !- Daily Dry-Bulb Temperature Range {deltaC}
  101301,                                 !- Barometric Pressure {Pa}
  6.7,                                    !- Wind Speed {m/s}
  60,                                     !- Wind Direction {deg}